67
Ge1 H9 C37 N4 O1 F15
C -0.840752 0.673159 -3.416859
C -0.581982 -0.705939 -3.461877
H -0.199318 -3.713368 -4.469783
H -1.003045 -1.532189 -5.373213
C -0.528741 1.449562 -2.293812
C -0.593296 2.860380 -2.197254
C -0.235791 3.222903 -0.934651
C 0.054797 2.044704 -0.198113
C 0.378560 1.940478 1.149416
C 0.324208 3.194203 1.964331
N 0.631721 -0.494467 1.201644
N 0.592795 -2.634862 -0.389687
N -0.107544 -1.341864 -2.348254
N -0.103471 0.952603 -1.049225
C -0.778506 3.488753 2.761594
C 0.671198 0.753216 1.816534
C 1.109815 0.577996 3.150886
O -1.897123 -1.101693 -0.173915
C 1.327395 -0.742191 3.366819
C 1.048962 -1.443069 2.149146
C 1.164506 -2.816124 1.936745
C 1.545323 -3.687689 3.098800
C 2.768325 -4.323615 3.163504
C 3.128798 -5.133249 4.227284
C 2.222681 -5.332637 5.236407
Ge -0.158758 -0.871340 -0.504508
F -3.313792 2.047725 -3.213158
C 1.318648 4.139784 1.930718
C 1.019079 -4.720880 5.195728
H -1.998754 -0.758807 0.585571
C 0.668879 -3.900672 4.154082
C 0.961192 -3.406734 0.689316
F 2.436043 3.914717 1.200632
C 1.085243 -4.739006 0.192651
C -0.891911 4.656379 3.441987
C 0.798748 -4.743537 -1.146642
F -1.781649 2.609635 2.824794
C 0.486074 -3.417308 -1.513878
H -0.844111 3.454011 -2.894337
F 3.669576 -4.136311 2.178997
C 1.211759 5.334599 2.631402
H 1.230706 1.269811 3.791155
F 4.329608 -5.710265 4.242598
C -0.260731 -2.893160 -3.993788
H 1.616359 -1.134924 4.182825
C -0.687930 -1.687771 -4.489357
H 1.325854 -5.500304 0.707452
H 0.809079 -5.500304 -1.721375
F -0.524331 -3.323656 4.151620
F 0.132644 -4.923288 6.199191
C 0.098447 5.580812 3.396835
C -1.522089 1.316637 -4.580652
C -1.019570 1.278874 -5.886952
C -1.709378 1.803022 -6.940872
C -2.928462 2.393632 -6.763298
F 2.214501 6.237885 2.565321
C -3.444831 2.464626 -5.486656
F -0.000241 6.739375 4.057920
C -2.748449 1.945010 -4.428212
F -1.996558 4.914676 4.174578
H -0.187187 4.111084 -0.602264
C 0.071996 -2.678667 -2.633377
F 2.552155 -6.106019 6.277421
F 0.175390 0.710922 -6.121448
F -1.181268 1.730517 -8.184165
F -3.624544 2.895122 -7.791195
F -4.636251 3.067320 -5.295142