100
Co1 P1 H37 C56 N5
C 0.225227 4.285253 2.254958
C -1.165523 5.075201 -0.302221
C 1.046451 -0.358495 -5.051409
C -2.038943 5.721861 0.562956
C -0.245034 -1.959573 -8.119969
C -0.955410 -1.509776 -4.503547
C -1.095942 -1.922194 -5.821999
C -0.575769 5.824031 -1.324352
C -0.858441 7.164700 -1.485596
C -1.714173 7.782704 -0.591517
N 0.484738 2.180801 1.418468
N 1.391456 -0.821998 -0.552413
N -0.095975 1.483055 -1.051719
N 1.841808 0.212161 1.810090
N -0.294212 -2.252377 -9.209991
H -0.487211 -0.170503 5.913337
H -2.738100 -0.014918 6.400715
H -3.647482 -0.136824 2.469030
H 6.311044 -4.095572 2.957929
H -2.453085 5.232816 1.263944
H -5.581037 0.984267 -1.720037
H -4.681995 -1.106927 -2.118995
H -4.560981 2.431267 -0.209465
H -2.913215 7.507680 1.012017
C -1.125616 -0.160385 5.210339
C -2.458020 -0.076905 5.494651
C -3.050852 1.171562 0.307534
H -1.888881 8.712114 -0.678128
C -4.797747 0.710551 -1.258033
C -4.275412 -0.531686 -1.482807
C -4.193561 1.569028 -0.363228
C -2.312884 7.074990 0.415633
H -0.577459 -4.890890 -0.928770
H 5.358155 -6.220495 2.679358
H -0.582521 -4.935633 3.093669
H 3.249312 -6.415403 1.730008
H -4.327499 -0.037283 4.709835
H -0.498307 -6.074429 1.075733
Co 0.661900 0.606512 0.431799
P -1.081935 -0.526951 1.138780
H 5.123023 -2.194314 2.329586
H -1.370238 1.621471 -3.995391
H 2.941565 -3.550533 -1.107761
H 3.040864 1.008028 4.641237
H 2.087512 -4.538504 1.043759
H 3.615997 -1.309834 3.953198
H -0.774353 -2.566898 -0.906701
H 0.223156 -0.280011 3.680836
H 1.799654 -2.681839 -3.124650
H -2.614999 1.780482 0.891313
H -1.819026 3.642716 -2.669474
H -2.810686 -1.826852 -0.940565
H 1.547156 -0.485348 -7.012293
H 1.401229 3.916058 3.929066
C 4.883272 -5.443318 2.408899
H -0.879848 -2.615740 3.127925
H -0.053456 5.188397 2.352672
H 1.787246 0.180788 -4.799385
C 3.636832 -5.555456 1.845763
C -3.403133 -0.079397 4.494349
H -1.608164 -1.767917 -3.862459
H -1.841470 -2.448942 -6.086702
H 0.033346 5.401384 -1.918102
H -0.472335 7.655739 -2.201106
C -0.580667 -5.128087 1.085252
C 1.957738 1.116739 2.819740
C 4.740341 -3.053539 2.198416
C 1.129463 -1.086145 -1.876475
C -0.280838 0.912399 -2.302492
C -1.074750 1.787073 -3.108176
C 2.423677 -2.755751 -1.155702
C 3.467623 -3.166922 1.618233
C 2.554992 -0.910462 2.149665
C -1.639325 -0.226422 2.855605
C 2.177350 -1.857403 -0.070913
C 1.198319 2.282971 2.582361
C 2.774287 0.574740 3.838222
C 2.942179 -4.437817 1.445089
C 3.106270 -0.686187 3.448167
C -0.715551 3.668495 -0.059680
C -0.766052 -3.043571 -0.084092
C -0.703890 -0.230160 3.882884
C 1.796431 -2.287264 -2.261174
C -3.000332 -0.146680 3.165266
C -0.887975 -2.342087 1.114045
C -0.723386 2.732768 -1.096331
C 0.297814 -0.297443 -2.678264
C -0.135628 -1.554631 -6.742687
C -0.114143 3.409332 1.179303
C 0.118389 -0.729796 -4.101937
C -0.633237 -4.427849 -0.100775
C -1.323180 2.886023 -2.377703
C -2.529614 -0.114284 0.139261
C -3.157125 -0.955317 -0.787396
C -0.649358 -4.456506 2.276338
C 5.443847 -4.182392 2.578782
C 0.908263 -0.762191 -6.366069
C 1.027784 3.587507 3.118844
C 2.696743 -1.957081 1.222772
C -0.815392 -3.068490 2.295212