82
Mn1 H25 C44 S1 N4 Cl6 O1
Mn -0.065392 -0.591688 -0.214576
H -3.216999 -3.896565 -1.993344
H -4.427647 -3.046461 0.014688
H -2.523754 0.244652 4.090496
H -0.365587 1.430748 4.371506
H 3.984904 1.988038 1.126363
H 4.594655 0.986805 -1.061761
C 2.786906 4.053923 4.289901
H 2.046854 -2.915573 -4.139213
H -0.225167 -3.908709 -3.813881
C 3.663582 3.358998 5.098714
C 3.785026 1.994785 4.993208
H -7.286649 -0.759279 2.467419
H -7.243638 -2.232791 4.268604
H -1.987375 3.492586 -4.445802
H -4.072169 4.554540 -4.651909
H -5.848293 3.838024 -3.364713
H -5.576308 2.129722 -1.816244
H -3.511754 1.074515 -1.597072
H -1.824184 -0.369311 -3.784640
H -1.211902 0.591440 -4.908992
H -0.241612 -0.319385 -4.018011
C -1.616717 -2.618711 -1.392883
C -2.890617 -3.262361 -1.364534
C -3.552236 -2.794129 -0.258454
C -2.699595 -1.860365 0.416921
C -2.828630 -1.193776 1.640398
C 6.192407 -0.477261 -4.635278
C -1.841895 -0.339625 2.174146
C 6.165842 -1.451506 -3.666097
C -1.824184 0.281085 3.450969
C -0.640102 0.938228 3.607135
C 0.113865 0.750666 2.404872
C 1.413067 1.216198 2.120847
C 2.141733 0.922036 0.968690
C 3.449789 1.392966 0.615442
C 3.787557 0.834327 -0.584509
C 2.732509 -0.011728 -0.992551
C 2.717328 -0.842940 -2.124568
C 1.639510 -1.714633 -2.429639
C 1.429512 -2.684830 -3.454925
C 0.173322 -3.231325 -3.279482
C -0.411129 -2.601169 -2.160502
C -4.072169 -1.439362 2.425570
C -5.287878 -0.848338 2.082415
C -6.466900 -1.151946 2.743569
C -6.439069 -2.029036 3.805127
C -5.262577 -2.611964 4.203670
C -4.111386 -2.325898 3.504290
C 2.134142 1.969147 3.188831
C 2.054445 3.356299 3.351000
C 3.020939 1.332244 4.043520
C 3.907736 -0.761978 -3.030691
C 3.998819 0.221713 -4.014102
C 5.114589 0.372842 -4.796225
C 5.034891 -1.579696 -2.875869
C -2.587006 2.182347 -3.033404
C -2.724896 3.209218 -3.918164
C -3.958315 3.838024 -4.038385
C -4.999448 3.421069 -3.271830
C -4.842582 2.399596 -2.357105
C -3.630669 1.774838 -2.228224
C -1.067687 0.208219 -4.018009
S -0.933339 1.506178 -2.833846
N -1.553464 -1.771307 -0.310705
N -0.637572 -0.015776 1.536305
N 1.717943 0.075981 -0.038790
N 0.507294 -1.697091 -1.660309
Cl -2.654939 -3.175461 3.964629
Cl -5.305588 0.313200 0.790682
Cl 0.960180 4.254035 2.333746
Cl 3.182738 -0.399672 3.943970
Cl 2.651799 1.292978 -4.253824
Cl 5.061837 -2.774698 -1.615892
O -0.963953 0.886952 -1.451589
H -5.242336 -3.202988 4.947372
H 2.690762 4.995784 4.377380
H 4.188576 3.829928 5.734992
H 4.379598 1.514409 5.557886
H 5.147480 1.062370 -5.449698
H 6.953965 -0.386853 -5.196647
H 6.912218 -2.026338 -3.539398