79
Mn1 H8 C41 Br8 N4 O2 F15
Mn 0.422840 0.109574 -0.142293
Br 4.924480 0.026969 3.716142
H -1.350460 2.684493 -1.956561
H 0.090402 2.940545 2.184106
H -2.122903 2.651095 2.962466
H -1.297340 3.413314 4.101703
C 2.965484 0.061629 -1.365045
C 3.667102 0.064598 -2.597652
C 2.699888 -0.026690 -3.588842
C 1.407318 -0.077901 -2.998929
C 0.092615 -0.227079 -3.500107
C -1.056090 -0.325789 -2.699314
C -2.408419 -0.526177 -3.146718
C -3.196356 -0.557349 -2.034217
C -2.392926 -0.392585 -0.865426
C -2.744842 -0.414108 0.480133
C -1.883866 -0.291649 1.604836
C -2.226928 -0.301297 2.998940
C -1.084863 -0.163251 3.731926
C 0.037282 -0.117236 2.798341
C 1.387398 0.030458 3.105168
C 2.396665 0.070535 2.120336
C 3.824246 0.086121 2.203951
C 3.253214 0.086863 0.026443
F 2.969911 0.575218 8.458297
C -0.013624 -0.362156 -4.975316
C -0.513831 3.724287 2.203918
C -0.137569 0.750372 -5.818714
C -0.208395 0.590061 -7.192861
C -0.139782 -0.672387 -7.731775
C -0.002557 -1.767845 -6.963265
C 0.059415 -1.613471 -5.599132
C -4.223329 -0.457897 0.782705
C -4.966999 0.682834 0.908112
C -6.306049 0.624202 1.249584
C -6.912494 -0.598169 1.446710
C -6.195383 -1.737415 1.307318
C -4.849694 -1.670619 0.989411
C 1.834486 0.147722 4.525975
C 1.947364 1.378256 5.106397
C 2.354612 1.556380 6.424347
C 2.609142 0.442368 7.161770
O -1.089290 3.932098 0.920488
C 2.491837 -0.814885 6.608451
C 2.111149 -0.952189 5.314119
C -0.757294 3.165426 -0.023746
C -1.445632 3.458587 -1.360990
C -1.660322 3.483079 3.193454
Br 3.142106 -0.010882 -5.419241
Br -3.087682 -0.644926 -4.867691
Br -5.054425 -0.774066 -2.170916
Br -3.885136 -0.409061 3.853475
Br -1.068263 -0.055487 5.580983
N 1.624222 -0.005167 -1.642271
N -1.082650 -0.272352 -1.310725
N -0.504977 -0.205556 1.528057
N 2.091229 0.075731 0.789739
O 0.017363 2.216920 0.035527
F 0.178934 -2.697796 -4.842942
F 0.035069 -2.992442 -7.516995
F -0.208395 -0.777776 -9.080299
F -0.312420 1.678839 -7.948225
F -0.166342 1.956415 -5.277448
F -4.185703 -2.823224 0.876316
F -6.795189 -2.917481 1.508100
F -8.222770 -0.604106 1.765816
F -6.989960 1.760479 1.382856
F -4.384900 1.879970 0.736432
F 1.984326 -2.179012 4.789211
F 2.766287 -1.888820 7.365514
F 2.467491 2.774297 6.972659
F 1.655429 2.503401 4.410156
C 4.357653 0.089832 0.906323
H -2.397353 3.636710 -1.207589
H -1.029531 4.242329 -1.779822
H 0.010723 4.518420 2.472887
H -2.291114 4.231196 3.151116
Br 5.488651 0.154550 -2.902672
Br 6.168800 0.046786 0.534630