91
H18 Ir1 C43 Br8 N6 F15
Br 1.781016 1.594984 -5.687968
Br 1.219635 2.339260 4.983740
Br -2.695779 -2.410286 4.324725
Br -3.457304 -4.333419 1.679929
Br -2.219897 -3.688266 -4.447419
Br -0.395002 -1.246299 -6.038284
N 1.004078 1.034453 -1.750359
N 0.713901 1.169736 1.097011
N -1.081297 -1.121897 0.798407
N -0.548567 -0.903117 -2.010573
N 1.732483 -1.293623 -0.149670
N -1.707226 1.379055 -0.590470
F 6.407998 4.867140 -0.402796
F 4.880286 2.650053 -0.379637
F -2.521083 1.245050 4.441936
F 1.296730 -1.515216 4.514686
F -4.610189 -7.475739 -1.867258
F -1.946744 -7.492106 -1.444398
F -0.631430 -5.161345 -0.995750
C 2.902126 3.925144 -0.346058
C 2.340212 5.193457 -0.307948
C 3.120952 6.329044 -0.275127
C 4.484436 6.223426 -0.339733
C 5.076724 4.969817 -0.379934
C 4.279166 3.855328 -0.373983
C -4.646862 -5.124903 -1.735299
Br 3.261141 3.896847 -3.549050
Br 2.962481 4.149704 2.759258
F 1.012570 5.324009 -0.250596
F 2.547329 7.540073 -0.154949
F 5.241924 7.320525 -0.328102
C -1.700727 0.447671 6.478880
C -0.773632 -0.290889 7.187286
C 0.229095 -0.951450 6.505723
F -4.654520 -2.799385 -1.580952
F -5.961934 -5.129762 -1.962517
F -2.700402 1.055423 7.130700
F -0.837928 -0.366203 8.515920
F 1.129295 -1.661752 7.201822
H 2.677082 -2.793375 -1.151853
H 1.084708 -2.833014 -1.314571
H 1.945536 -1.751259 -2.121968
H 3.751438 -1.177136 -0.024949
H 3.102104 0.004356 -0.887195
H 3.002315 0.031208 0.709474
H 1.545619 -1.503197 1.854608
H 0.870706 -2.696196 1.029585
H 2.462693 -2.629705 1.185387
H -2.252516 1.373812 1.368314
H -1.287023 2.591107 0.986477
H -2.828420 2.626909 0.557489
H -2.745557 0.244746 -1.903553
H -3.127469 -0.044234 -0.377756
H -3.662734 1.280469 -1.098315
H -2.285337 3.014346 -1.640725
H -0.727658 3.016904 -1.274674
H -1.271668 2.071966 -2.445426
Ir 0.011157 0.042882 -0.384128
C 0.820906 0.660825 -3.061207
C 1.572410 1.592081 -3.836335
C 2.160365 2.501727 -2.972276
C 1.776791 2.142677 -1.626422
C 2.045530 2.706443 -0.347770
C 1.558097 2.241518 0.901207
C 1.836018 2.756055 2.240204
C 1.155353 2.003174 3.141938
C 0.410240 0.978447 2.424628
C -0.459816 -0.017126 2.910525
C -1.179131 -0.986742 2.161568
C -2.044040 -2.046120 2.607944
C -2.392117 -2.800919 1.527348
C -1.789175 -2.222832 0.348263
C -1.876707 -2.651315 -1.001401
C -1.303626 -2.023104 -2.130829
C -1.324673 -2.314257 -3.545254
C -0.576682 -1.353976 -4.189871
C -0.054804 -0.452129 -3.202542
C -0.594790 -0.112770 4.396127
C -1.598891 0.528739 5.105501
C 0.301335 -0.860920 5.139052
C -2.606437 -3.921802 -1.270513
C -3.961072 -3.952874 -1.541069
C -3.954798 -6.323785 -1.689011
C -2.608324 -6.325703 -1.467255
C -1.942533 -5.141398 -1.250394
C 1.872223 -2.249940 -1.281028
C 3.003993 -0.546112 -0.083044
C 1.645263 -2.097778 1.083439
C -2.047918 2.050229 0.689001
C -2.911084 0.653921 -1.030264
C -1.478643 2.461833 -1.570056