66
Mo1 H8 C37 N4 O1 F15
F 4.467982 7.028455 0.627506
H 1.435739 -0.586024 -5.516652
C 1.789645 1.170097 -3.041388
C -2.363809 -3.118651 -3.186563
F 2.682746 5.375745 -0.526016
C -3.166962 -2.856100 -4.292419
C -3.817315 -3.841905 -5.003110
C -3.698933 -5.149707 -4.609504
C -2.941136 -5.463035 -3.499242
C -2.272647 -4.458653 -2.821002
C -1.336060 -0.782937 3.444297
C 5.500544 3.862484 2.032233
C 1.611557 2.167048 2.517144
C -1.030494 -2.042439 3.952233
C 1.559804 2.054597 1.086249
C -1.383560 -2.441220 5.228801
C 2.443705 2.617100 0.151170
C -2.048601 -1.550775 6.054237
C 2.421850 2.303030 -1.212908
C -2.358974 -0.287558 5.594729
C 3.377018 2.549729 -2.236970
C -2.014009 0.066639 4.312975
C 2.988990 1.852482 -3.364303
H 3.441549 1.833905 -4.198905
Mo -0.357458 0.881352 -1.037995
H -0.404229 -2.226968 -5.139718
C 3.530187 3.505811 0.657537
H -3.254257 -3.274696 -0.487760
C 4.540393 3.030247 1.491663
H -2.852054 -2.480850 1.826089
H 0.527512 1.183720 3.971794
C 5.454736 5.216109 1.772223
N -0.044253 -0.218824 -2.720689
C 4.503045 5.712727 0.901741
N -1.165338 -0.856129 -0.345162
C 3.581752 4.860674 0.339101
N 0.532459 1.149043 0.777473
N 1.444102 1.502620 -1.747410
F -3.356060 -1.582108 -4.689868
F -4.589100 -3.513097 -6.046840
F -4.321642 -6.124738 -5.292658
F -2.846479 -6.736903 -3.079335
F 6.465178 3.369706 2.817376
F -1.497112 -4.827339 -1.786778
F 6.322761 6.044879 2.358086
F -0.345931 -2.921614 3.203317
F -1.066082 -3.654652 5.677573
F -2.401297 -1.914012 7.297271
F -2.997535 0.564000 6.406721
H 2.190051 2.737973 3.009941
F -2.368121 1.294561 3.890361
C 0.951695 0.186025 -3.597987
H 4.148008 3.098361 -2.158910
C 0.884595 -0.644231 -4.744754
F 4.599538 1.723807 1.792401
C -0.129180 -1.549537 -4.532592
C -0.699356 -1.300732 -3.250080
O -1.552852 2.043203 -1.275544
C -1.633204 -2.023863 -2.492564
C -1.838345 -1.815803 -1.115246
C -2.659927 -2.578688 -0.233235
C -2.444216 -2.136562 1.040608
C -1.499476 -1.065056 0.986360
C -0.943777 -0.357034 2.064595
C 0.017557 0.659237 1.978759
C 0.692317 1.316234 3.045586