86
Ga1 H14 C47 I3 N6 F15
Ga 0.104226 -0.572912 0.009235
I -0.413459 5.232908 0.174363
I 1.754797 2.137700 -5.259277
N 0.676439 -2.094671 -0.997650
H 1.807151 -3.738709 -3.470609
N -0.310424 -1.502636 1.631190
H -0.966103 -4.096207 3.411931
N 0.540955 0.635524 -1.457367
N -0.320460 1.122815 0.878205
N 2.247058 -0.184218 0.722324
H -1.611746 -1.985372 4.492530
N -1.988092 -0.717050 -0.749297
H 1.186598 -5.198304 -1.578901
H 5.363205 0.152787 -0.252592
H 3.177051 -0.352720 -1.024071
F 0.340237 1.077273 5.333230
H 5.706098 0.603645 1.945594
F 1.827223 -7.486749 3.508630
H -4.970427 -0.279854 0.254682
H -5.477240 -0.655569 -2.001629
F 4.834647 -1.559562 -6.427855
H 3.934762 0.624138 3.451562
F -1.135041 -8.406682 -0.041228
H -3.697540 -0.910600 -3.499671
H -2.852852 -0.261638 0.946899
H 1.772025 -0.038486 2.661589
F 4.045157 -1.072271 -3.894130
H -1.498006 -0.912877 -2.635721
F 1.755299 -4.874962 2.888541
C 0.246568 -5.200581 1.102780
F -1.263835 -5.813110 -0.607684
C -0.482707 -6.184271 0.386784
F -0.472671 -1.356904 -5.253993
F 0.417179 -9.271964 2.059202
F -0.803856 1.733067 7.694430
C -1.765630 0.753931 4.302302
F 2.993060 -1.903398 -8.374518
C -1.150094 0.414649 2.991845
C 1.437495 -3.454076 -2.643647
F -3.531948 1.799101 7.886243
C 0.193044 -3.772864 0.772523
F -5.084167 1.179741 5.718441
F -3.921675 0.508008 3.401892
C -0.639936 3.338394 0.830649
C 1.004279 0.391878 -2.712341
F 0.335219 -1.757666 -7.798287
C -3.741029 1.115983 5.625969
C 0.355291 1.931171 -1.243361
C 0.743345 2.671215 -2.355664
C -0.854035 -3.224093 3.052613
C -0.169921 2.208972 0.104085
C -0.887488 1.432495 2.051276
C 3.516599 -1.470757 -6.133795
C 1.146454 1.698911 -3.288307
C -0.870762 -0.972081 2.780481
C 1.024351 -5.690149 2.156958
C 1.124710 -2.096948 -2.284328
C -0.432528 -7.545953 0.698546
C -1.083188 2.839718 2.045992
C 1.293647 -0.931094 -3.108648
C 0.848722 -1.420661 -5.557828
C -1.203619 -2.065069 3.639148
C 1.116346 -4.251047 -1.605322
C 3.095091 -1.256713 -4.855043
C 1.061149 -7.067770 2.505708
C 0.646332 -3.397150 -0.537933
C -0.276971 -2.889365 1.779144
C -1.559894 1.432495 6.627306
C 4.633929 0.141402 0.355080
C 2.598314 -1.636982 -7.135132
C 3.309191 -0.161447 -0.104637
C -3.155602 0.778978 4.484604
C 4.827957 0.405541 1.639116
C 0.335219 -7.958101 1.726303
C -2.939830 1.464374 6.743556
C -4.272932 -0.432417 -0.371484
C -4.577354 -0.635076 -1.700435
C 3.795932 0.400987 2.540055
C -3.543657 -0.805855 -2.569670
C -3.025135 -0.452911 0.032749
C 2.489592 0.041211 2.043349
C -2.230626 -0.821795 -2.038618
C 1.782061 -1.199787 -4.511577
C -1.012937 1.088659 5.427816
C 1.265212 -1.630151 -6.820728
I -1.936909 4.069786 3.493174