88
H32 Pt1 C49 N6
H -4.144056 -0.137597 -2.311506
H -4.477225 1.878327 -0.908414
H -2.873707 -3.720337 -1.828719
H -4.222621 -4.838992 -3.332651
H -4.505412 -4.004883 -5.506022
H -3.494858 -1.998899 -6.102249
H -4.682616 2.490788 1.656185
H -6.250241 4.157535 2.018301
H -5.812084 6.349548 1.409939
H 3.863537 1.445266 3.244229
H 4.715530 -0.618626 2.098338
H 4.579416 -5.796099 0.748963
H 2.379131 -3.590127 -2.056220
H 6.769663 -5.117455 0.407662
H 0.114192 -3.539740 -3.029093
H -3.730536 6.894285 0.427156
H -1.025502 4.516915 2.671276
H -2.630220 -0.824526 4.160777
H 2.829940 -4.252074 0.522511
H 5.533041 -1.353946 -0.331395
H -2.119219 -0.866092 -4.590515
C -3.509750 0.235262 -1.710572
C -3.692067 1.344593 -0.945809
C -2.465607 1.564861 -0.195652
H -2.098224 5.229135 0.184427
H 1.635653 3.021589 -0.283289
H 2.596057 4.377860 -1.899000
H 2.477208 3.728137 -4.144551
H 1.347331 1.794180 -4.689983
H 0.422460 0.464786 -2.993353
H 0.983696 -2.209946 1.576816
H -1.453700 -2.751532 4.762108
H -1.967730 0.432259 2.302190
Pt 0.200364 0.345853 0.164516
C 2.190729 1.289811 1.944176
C -2.381002 -2.171713 -3.029592
C 3.433907 0.972533 2.541441
C -2.999821 -3.359793 -2.698583
C 3.905437 -0.165330 1.896023
C -3.793786 -4.032011 -3.592746
C 1.807477 -1.927477 -0.852774
C -3.969931 -3.534410 -4.878107
C 2.889996 -1.658134 0.003840
C -3.361160 -2.353177 -5.230770
C 2.980073 -0.541955 0.890451
C -2.552651 -1.669546 -4.328656
C 1.693197 -2.972896 -1.828651
C -3.243797 3.691080 0.866952
C 0.452578 -2.940940 -2.374271
C -0.263534 -1.838457 -1.781615
C -4.479415 3.387497 1.419237
C -1.571440 -1.412757 -2.035650
C -5.414683 4.378134 1.625073
C -2.196792 -0.274893 -1.455691
C -5.156966 5.675778 1.269789
C -3.913965 6.002186 0.697112
C -2.954883 5.006984 0.530642
C -2.197894 2.637671 0.676017
C -0.977428 2.806582 1.393094
C -0.535020 3.760698 2.373281
C 0.728587 3.392062 2.808231
C 1.099420 2.209689 2.099619
C 3.992741 -2.638499 0.078670
C 3.728141 -3.969240 0.394542
C 4.768658 -4.892541 0.526924
C 6.064393 -4.486243 0.331384
C 6.353251 -3.188600 0.031511
C 5.326335 -2.253885 -0.109505
C 1.588243 2.752941 -1.192445
C 2.158940 3.572386 -2.148087
C 2.080064 3.195761 -3.465682
C 1.431380 2.059039 -3.781868
C 0.877336 1.265844 -2.761989
C -0.453178 -0.772495 1.730444
C 0.240619 -1.920630 2.093078
C -0.154497 -2.644206 3.211835
C -1.203165 -2.251603 3.993712
C -1.888191 -1.109174 3.640589
C -1.499736 -0.365055 2.520249
C 0.618182 -3.823155 3.547803
N 1.972474 0.383629 0.962585
N 0.594437 -1.259824 -0.898992
N -1.615659 0.543409 -0.530982
N 0.036220 1.931215 1.276064
N 0.975862 1.607089 -1.483852
N 1.236148 -4.770424 3.792025
H 1.251937 3.843601 3.460241
H 7.257311 -2.919496 -0.084352