67
Zn1 H17 C34 N4 O1 F10
Zn -1.881584 0.268449 0.207661
C 2.790935 0.576796 -5.682105
F 3.204163 2.163407 6.118128
C 2.292162 -0.650813 -5.433504
F 1.165572 2.139068 4.379729
H -5.644712 -1.750640 2.733489
C 1.483105 -0.862259 -4.326730
H -6.432020 -1.998596 0.385333
C 1.709293 -0.049939 3.636183
H -3.610471 -0.804454 -4.363373
C 2.502400 -1.114779 3.819000
H -1.234049 -0.372433 -4.723521
C 3.552144 -1.145203 4.754680
C 3.804430 0.013952 5.438666
H 2.951876 0.134127 -1.259404
H 3.122967 0.093054 1.213781
C 2.989574 1.077271 5.340315
C -3.961352 -0.807496 1.912940
H -0.743975 -0.717745 5.104680
C 1.984778 1.059016 4.421602
C -2.009757 3.086776 -1.380029
C -5.202486 -1.463133 1.967668
H -3.123297 -1.231911 4.790142
C -5.638912 -1.601563 0.664115
H -6.375473 0.205623 -1.799157
C -4.645716 -1.023507 -0.165566
H -5.472171 0.386646 -3.070324
C -4.608018 -0.913980 -1.670675
H -5.105341 1.121385 -1.735192
N -1.763270 -0.069714 2.176136
C -3.223342 -0.685800 -2.282879
H -4.654415 -2.958473 -1.991398
C -2.973955 -0.672109 -3.699555
N -3.677168 -0.536723 0.578538
H -5.151738 -2.150716 -3.239581
N -2.072104 -0.469790 -1.641909
C -1.666126 -0.434802 -3.902153
H -6.088388 -2.324133 -1.994643
N 0.121628 0.097618 0.176016
C -1.057158 -0.299415 -2.594742
H -1.118055 2.855553 -1.649298
C 0.265171 -0.046896 -2.280361
H -2.032956 4.007102 -1.103601
C 0.866888 0.082406 -0.973085
H -2.611475 2.958995 -2.116016
C 2.244314 0.109787 -0.655464
C 2.338559 0.093054 0.715881
C 1.011880 0.074800 1.231095
O -2.430235 2.210565 -0.231147
C 0.604452 -0.017993 2.623790
C -0.690328 -0.164029 3.055206
C 2.576346 1.589915 -4.789531
C -1.222449 -0.624952 4.313099
F 1.554151 2.399193 -2.846596
C -2.538979 -0.900289 4.148231
F 3.095419 2.819045 -4.997211
C 1.783239 1.373905 -3.682822
C -2.859412 -0.570189 2.758660
F 3.494147 0.817145 -6.788562
C -5.473621 0.319713 -2.110643
F 2.512550 -1.638071 -6.305218
C -5.179287 -2.210043 -2.282303
F 0.985782 -2.094431 -4.144437
C 1.197470 0.146296 -3.424737
F 2.306661 -2.191788 3.064748
F 4.348151 -2.170491 4.826471
F 4.854174 0.035249 6.347355