68
Sn1 H20 C39 Br1 N6 Cl1
N -1.954175 -1.437735 -1.991622
H -4.977126 -3.655263 0.085220
H -4.383308 -3.253428 2.446534
C -0.867672 -0.763972 2.606277
C 1.515723 0.519288 -0.850548
C 0.003337 -0.209384 3.598063
C 2.317140 0.952087 -1.948558
C 1.015672 0.441535 2.979601
C 0.848971 0.310801 1.569350
C 1.793651 0.433279 -3.087341
C 0.629491 -0.331861 -2.774576
C 1.658216 0.807867 0.522816
H -2.334564 -2.759390 -4.802946
C -0.252545 -1.002184 -3.649555
C -1.478659 -1.591176 -3.264122
H -4.052813 -3.437832 -3.158551
N -3.699441 -2.722234 9.339010
H -4.301821 -1.040578 4.115749
H -4.864218 -1.376359 6.359233
Br 5.887438 4.994666 2.099100
C -3.442649 -2.308012 -0.406134
C -1.578152 -2.489664 5.042275
C -4.305227 -3.091042 0.391699
C -3.971163 -2.865353 1.708231
C 2.723805 1.781355 0.920424
C -2.897178 -1.944709 1.755697
C 2.343305 2.983285 1.524089
C 0.130292 -1.063285 -5.092403
C -0.800145 -0.713054 -6.082010
C -0.424471 -0.689660 -7.407050
C 5.020262 2.487871 1.057552
C 4.065160 1.557593 0.694147
C 0.864321 -1.026817 -7.766752
C -2.067283 -1.498286 2.797725
C 1.787946 -1.414891 -6.806184
C 1.409573 -1.434157 -5.478573
H 5.923278 2.322733 0.907196
C 1.252825 -0.973147 -9.158233
N 0.506734 -0.274338 -1.376385
Sn -1.287007 -0.333099 -0.407815
C -2.382606 -2.481407 -3.917375
C 3.285643 3.916315 1.889664
C -3.342043 -2.859849 -2.997416
N -0.301700 -0.435623 1.369713
C -3.063449 -2.222278 -1.775941
Cl -2.117342 1.819337 -0.525615
C 4.609938 3.663103 1.645769
H 3.026581 4.711729 2.296038
H 3.068759 1.497043 -1.894065
N 1.550755 -0.962138 -10.246205
H 2.140279 0.557132 -3.942334
H -0.108163 -0.285072 4.519286
C -2.450924 -1.815351 4.206235
H 1.705241 0.899793 3.403833
C -3.689836 -1.442414 4.688772
C -4.041698 -1.658470 6.029841
C -3.128161 -2.308012 6.857253
C -1.913381 -2.729114 6.368507
C -3.452670 -2.536453 8.250650
H -1.316193 -3.174987 6.925635
H -0.760371 -2.784160 4.713129
H -1.672174 -0.498375 -5.842382
H 1.442403 3.152551 1.681999
H -1.040583 -0.444705 -8.060038
H 2.650353 -1.659846 -7.053712
H 2.023136 -1.699754 -4.831860
H 4.333120 0.764931 0.288985
N -2.644054 -1.607414 0.444700