80
Sn1 H27 C42 N6 Cl1 O3
H -1.651125 -0.855273 -4.135484
H 0.759511 -0.593249 -3.892396
C 2.875950 -0.091877 -2.162568
H -3.457319 0.641286 -4.196986
C 4.853314 -1.250828 -2.881877
H -5.128004 0.388081 -5.770488
C 3.801335 -1.116037 -2.026829
H -7.016217 -2.191846 -3.344266
H 4.191815 1.287528 -4.782922
C 6.197707 0.156290 -5.915649
C 1.563651 1.374449 4.727663
H 3.319921 3.092721 -4.331300
C 1.383566 0.801272 5.976063
H 1.868546 3.645742 -4.113451
H 2.121735 2.496869 -5.149305
C 2.091423 1.235879 7.076120
C 2.970450 2.276416 6.948505
H 5.452407 -0.004955 -6.500313
C 3.143402 2.906281 5.723837
C 2.426630 2.455298 4.618509
C 3.783505 2.675750 8.076317
N -2.879801 -0.197694 0.647040
N -0.784402 -0.186356 -1.169123
N 0.942627 0.326354 1.095507
N -1.369230 0.288562 2.635841
N 4.466399 2.959190 8.950696
Cl -0.559563 -2.830278 1.095952
O 6.058632 -0.610885 -4.763897
C -1.207154 -0.652456 -3.343557
C 0.135456 -0.511367 -3.206806
C -4.216884 -0.618444 -2.819995
C -4.172308 0.073148 -4.020475
C -5.177929 -0.067942 -4.962509
C -6.265568 -0.900623 -4.690779
C -6.304794 -1.618669 -3.517036
C -5.284910 -1.483878 -2.593216
C -7.353207 -0.979986 -5.618263
H 6.499036 -3.561173 -1.496680
H 6.047934 -2.251054 -0.820294
C 3.039987 0.835285 -3.178014
C 4.091966 0.686637 -4.080186
C 4.994172 -0.363978 -3.926628
C 2.387404 2.860931 -4.301937
N -8.234017 -1.049271 -6.327252
O 2.168093 1.868263 -3.254501
Sn -0.876102 -0.542860 0.829200
H -5.586239 0.699234 1.933164
H -5.773456 0.200381 -0.467091
H 4.022429 0.384301 0.411007
H 3.571326 0.773558 2.767591
H -1.283824 1.739771 5.404363
H -3.576781 1.422319 4.553580
H -5.313438 -1.980212 -1.807685
C 5.837538 -2.893516 -1.485159
H 3.701486 -1.727006 -1.333842
H 7.012545 -0.080539 -6.362660
H 6.220886 1.087231 -5.678350
H 5.001304 -3.282773 -1.293567
H 0.771992 0.107161 6.073327
H 1.971961 0.822687 7.901805
H 3.730014 3.621808 5.643012
H 2.530045 2.882346 3.798285
C -3.553602 0.236913 1.765222
C -4.892646 0.428392 1.377738
C -4.996061 0.148732 0.041653
O 5.784047 -2.253573 -2.763124
C -3.712291 -0.234226 -0.437470
C -3.200565 -0.448380 -1.752689
C -1.831210 -0.438302 -2.072984
C 0.433219 -0.220369 -1.852000
C 1.686679 -0.018812 -1.244730
C 1.929169 0.216757 0.127441
C 3.180846 0.408236 0.804830
C 2.925874 0.627429 2.113921
C 1.522642 0.602235 2.341387
C 0.813002 0.876856 3.536005
C -0.595580 0.808830 3.637461
C -1.513833 1.341696 4.595956
C -2.794038 1.165334 4.123991
C -2.703104 0.525391 2.873250