149
Ga1 B2 H44 C73 N10 F19
Ga -0.178298 -1.267961 -0.374585
C -2.898526 6.245241 -0.560517
C -2.837518 3.951898 0.539448
B 0.272434 2.902903 6.898620
B 0.209974 6.857565 -2.501080
C 2.897228 6.975762 -3.947908
H 0.156229 3.201678 1.617539
C 3.572674 1.935441 5.511164
H -2.773605 -0.002765 -1.616733
H -0.343455 -2.299391 -5.254116
H -0.513406 0.172889 -5.160369
H 0.250646 -6.035718 1.101930
H 0.223047 -1.687067 4.623692
H 0.189638 -6.130932 -1.379240
H -5.094812 -0.053655 -1.447988
H -2.472923 -2.632640 1.276925
H 2.181111 -0.700453 -2.454206
H 2.483246 -1.803622 1.280049
H -4.754910 -2.788594 1.439419
H -4.056224 1.830925 5.767406
N -2.397389 -1.320986 -0.194903
C -2.411915 8.331740 -2.013595
H 2.432406 1.865399 -1.785477
N -0.095066 -3.177658 -0.246152
H 2.702584 2.589353 -0.385522
N -0.009364 -1.099367 1.541916
N -0.188030 0.662091 -0.217403
H -6.118874 -1.475298 0.048839
N 2.095410 -1.217563 -0.557392
N -0.298426 -1.163390 -2.281399
N -0.994207 2.341469 6.208017
H 2.811527 0.768797 2.605007
N 1.297949 5.780663 -2.469831
H 2.946616 -0.505100 3.564351
N -0.950629 6.342097 -1.619858
H -3.848507 0.317351 3.679973
N 1.470805 2.389076 6.126769
H -2.500522 -0.546141 3.701847
H -2.602202 0.754022 2.776877
F -2.584771 3.003042 -2.859818
C 4.079620 -0.752985 -1.797977
F 1.743888 1.955688 -4.371957
H 2.682248 4.185008 7.682970
F 2.310390 -4.610792 -3.676667
F 2.448384 -6.695649 -5.372550
F 0.176565 -7.843142 -6.302520
H 3.103493 2.824105 8.414196
F -0.219987 7.072618 -3.802913
H -2.406105 2.758440 8.620440
C 4.248119 -1.407991 0.423827
F -2.372696 -4.842260 -3.795726
H -3.619001 3.446279 7.832965
C 4.852388 -1.032060 -0.710512
F -0.590392 5.522928 -6.254084
H -2.176599 4.140684 7.845464
H -3.758447 6.494767 -0.241777
H -2.337834 3.861609 1.376921
F 0.241930 4.278580 6.907994
F 1.613157 3.971597 -6.115026
H -2.782320 3.113030 0.033214
F -2.241964 -6.902494 -5.478797
H -3.775878 4.152176 0.736317
F -2.154810 -4.751971 3.261236
H 2.281339 7.043068 -4.707259
F -2.686451 5.048500 -4.584763
F 0.285508 2.456382 8.214828
F 2.454195 -4.147855 3.504978
F -2.054583 -6.569245 5.226798
F 2.574758 -5.981545 5.492415
F 0.321822 -7.196344 6.361137
F 0.719826 8.054306 -1.998283
H 4.094146 4.462442 -3.060437
H 2.866724 7.806422 -3.426050
H -1.665294 8.947348 -1.863600
H 3.864640 2.512197 -1.482362
H -3.228259 8.702746 -1.616733
H -2.545551 8.208619 -2.976064
C 0.042928 -3.932803 0.908186
H 4.476172 -0.482118 -2.616701
C 0.191091 1.097121 4.511196
H 4.188563 0.484796 3.367483
C -0.050036 -4.013242 -1.326117
C 0.066170 2.579504 0.905061
C 0.157681 0.048126 3.467479
C -0.122665 -3.583138 -2.660449
C 0.037118 0.154831 2.051900
H 4.765233 -1.604986 1.195677
C -1.530205 3.242718 -3.641668
C -0.026795 -4.645266 -3.688542
H 5.798011 -0.963112 -0.757385
C 0.079243 -2.020316 2.539384
C -0.385580 2.416983 -3.541671
H 4.165322 3.608799 7.511100
C -3.177419 -0.575690 -0.976128
C -0.000649 1.170994 1.030057
C 0.073432 4.226048 -1.038626
C 1.257277 -6.224504 -4.991625
C -1.000017 1.512451 5.064303
C 0.099579 -6.808921 -5.454110
C -1.165610 -5.251024 -4.182276
C 2.439669 3.891158 -1.922973
C 0.085053 -3.387785 2.214395
C 0.162039 -4.389173 3.336234
H 3.809442 6.831299 -4.279148
C -0.347813 -1.767506 -4.466642
C 1.151239 -5.145960 -4.110403
H 4.522654 1.932705 5.501789
C 1.215152 4.567505 -1.757353
C -0.321667 1.295757 -2.538578
C -0.269374 -2.250142 -3.113560
C -0.552625 4.508407 -5.382237
C -0.022437 2.886487 -0.448020
C -0.427704 -0.408245 -4.410393
C -0.365244 0.000519 -3.035437
C -0.183673 1.653630 -1.154248
C 0.606526 2.697700 -4.407269
C 0.160587 -5.292064 0.514449
C 0.166397 -1.302928 3.754970
C 0.118462 -5.347879 -0.844883
C -1.111865 -6.308227 -5.072872
C 0.571664 3.733562 -5.307240
C -4.570434 -0.611806 -0.885506
C -1.607191 4.272014 -4.547889
C -2.348002 1.205468 4.761188
C -3.008921 -2.108963 0.692568
C -2.269563 2.512197 6.567380
C 2.711299 -0.872823 -1.685481
C -0.988396 -5.047463 3.792469
C -2.105423 7.011878 -1.379240
C 1.412702 1.540358 4.995556
C 2.885608 -1.509772 0.473825
C 2.779570 2.589353 6.411135
C -4.365622 -2.199252 0.805065
C 0.231763 -6.296736 5.351794
C -3.107696 1.847341 5.711158
C 3.218246 4.672569 -2.757321
C 2.898681 2.605769 -1.344867
C -2.255037 5.051783 -0.266776
C 1.409797 -5.730377 4.920558
C -5.171798 -1.427691 -0.010534
C -0.997112 5.115806 -0.951129
C 1.305212 -4.743763 3.904965
C -0.915768 -5.963487 4.823686
C 3.212436 0.428981 3.429981
C 2.493414 5.826628 -3.079186
C -2.870927 0.358392 3.629974
C 3.221152 3.369123 7.607972
C -2.651589 3.283759 7.829840
C 2.733088 1.264566 4.604943