89
Ta1 H37 C44 N4 Cl2 O1
H -5.095195 1.621023 -1.435805
N -2.062541 0.675665 -1.162071
N 0.154795 -0.864911 -1.229365
N 0.691511 0.087133 1.264331
N -1.602850 1.501254 1.041863
Cl 1.021326 2.903340 0.377194
Cl 0.380461 1.831527 -2.526000
C 3.410329 -2.315517 0.155113
C 3.353789 -3.702704 0.093617
H -1.132506 0.406136 7.483026
H 0.467811 4.020234 6.711359
C 4.491137 -4.472324 0.276139
C 5.717801 -3.868701 0.509453
C 5.805478 -2.490682 0.544881
Ta -0.184361 0.998298 -0.380226
C 4.650923 -1.729277 0.381174
H 0.221987 3.359305 8.985630
C 8.035925 -4.143960 0.966518
H -4.365916 0.115786 -3.280506
H -0.056614 1.819684 9.320473
H 0.284262 -2.753335 -3.817046
H -1.281639 2.818719 9.077039
H 2.258232 -3.013122 -2.350345
H 1.957507 0.238038 4.202350
H -2.902441 2.713658 3.679226
H -4.444580 2.767143 1.725781
H -3.856240 -4.185985 -5.194775
H -2.571398 -1.064718 -7.386447
H -3.298219 -2.883228 -2.090584
H -2.098596 -3.859341 -2.504599
H -3.608777 -4.254752 -2.857467
H -4.892799 -3.068518 -7.750073
H -3.864434 -4.292956 -7.691305
O 6.773207 -4.720841 0.689316
H -3.491600 -2.974918 -8.519204
H -1.280000 0.648731 -6.482338
H -0.517945 0.369842 -5.105238
H -1.935532 1.112910 -5.097062
H -2.046153 -0.440083 4.340956
H -1.771649 -1.062808 5.790269
H -0.635940 -1.125844 4.663935
H 0.037618 4.148218 3.399695
H 1.511745 3.575158 3.646048
H 0.945530 4.751841 4.571066
H 2.522084 -4.128679 -0.076272
H 3.275126 -1.188881 2.667731
C -2.875401 1.848719 0.644001
C -3.144988 1.368113 -0.648058
C -4.238087 1.221409 -1.528632
C -3.831657 0.396585 -2.545400
C -2.473068 0.029063 -2.315088
C -1.668403 -0.904261 -2.946250
C -0.425351 -1.314954 -2.431583
C -0.812115 1.047963 6.861273
C 0.437493 -2.285336 -3.004862
C -0.340132 2.268581 7.330769
C 1.520759 -2.434331 -2.193980
C 1.356876 -1.580854 -1.076881
C 2.168916 -1.493176 0.063297
C 1.825581 -0.731006 1.183233
C -0.366353 2.595225 8.809208
C 2.475377 -0.724702 2.450040
C 1.750195 0.060390 3.292752
C 0.630875 0.572132 2.581132
C -0.379464 1.377091 3.130051
C -1.480757 1.797335 2.393066
C -2.708240 2.392553 2.807760
C -3.558792 2.423307 1.734712
C -2.203481 -1.561370 -4.189381
C -2.851638 -2.797269 -4.095278
C -3.403104 -3.353138 -5.252943
C -3.307232 -2.720861 -6.483520
C -2.646784 -1.504064 -6.547916
C -2.090401 -0.906171 -5.421422
C -2.975369 -3.511684 -2.769945
C -3.944737 -3.316844 -7.720078
H 4.430500 -5.419974 0.241703
C -1.395538 0.421418 -5.536734
H 6.644559 -2.065663 0.678858
C -0.340132 1.682150 4.596032
H 4.712379 -0.782008 0.424513
C -0.826864 0.746152 5.504319
H 8.310429 -3.580451 0.212750
H 8.697192 -4.854555 1.100263
H 7.973649 -3.595733 1.776151
C 0.139226 3.183567 6.403627
C 0.153975 2.916139 5.038857
C -1.367678 -0.589078 5.033631
C 0.711177 3.936186 4.079620