101
Ta1 H46 C48 N5 O1
H -0.791854 3.216248 6.923384
H -2.074821 -0.399171 4.263760
H -1.388776 5.474773 -0.149197
H -4.341365 2.884337 2.551946
H 5.281952 0.246848 -0.037790
H 4.398502 1.456227 -0.598949
C -1.221481 2.843643 1.643819
C -1.492091 1.907677 2.658433
C -1.965162 2.384562 4.004359
C 3.434077 -1.069353 1.370079
C -1.005620 2.666877 4.990260
C -3.722694 2.853816 5.583358
C 3.431357 0.374017 0.869056
C -1.573831 4.218341 1.496949
H -1.940284 -4.616101 0.014349
C 0.474723 2.567685 4.690679
H 0.186997 -4.014591 -1.750213
C 3.846652 1.303624 2.000749
C -1.403343 -1.726818 2.824365
C -3.221814 3.558333 7.958455
C -0.856601 -1.481381 1.531079
H 0.636477 -2.740356 -3.812774
C -1.439381 3.030581 6.254156
C -1.695813 -0.522526 3.402025
C -0.683813 3.502379 -0.448821
C -1.253152 4.610022 0.221114
C -2.781530 3.132317 6.580076
C -4.374825 2.189993 3.243149
C -3.330828 2.479939 4.299354
C -1.339581 0.513903 2.498386
C 4.380881 0.521533 -0.307702
N -0.828260 -0.099052 1.345380
N -0.652884 2.450690 0.452022
N 2.082917 0.691940 0.440657
C 0.176905 -3.068452 -1.830066
C 0.429249 -2.363935 -2.965144
H -0.578231 -9.579514 2.559350
H 3.478884 -0.793396 -6.839727
H -0.897095 -8.849563 1.171661
H -1.720741 -8.461697 2.487728
H 2.739751 -0.586110 -9.317117
H 1.227457 -1.013399 -9.620485
H 2.265160 -2.090522 -9.050356
H -1.745049 -6.807226 0.784955
H -0.327635 4.578230 -3.295625
H -0.375786 -0.614087 -7.945256
H 0.335785 2.752081 -4.844382
H 1.293892 -3.559326 2.149901
H -1.666529 0.352398 -4.782295
H -1.993907 -0.995595 -5.580047
H -2.005240 0.410896 -6.344138
H 3.205624 0.662691 -3.809196
H 4.187567 -0.236395 -4.696906
H 3.237452 -0.924380 -3.609162
H 4.074657 -0.045641 -1.046612
H -1.540201 -2.580123 3.218227
H 1.531707 -5.739005 2.882686
C 2.564362 -0.659868 -6.617552
C -0.845225 -8.732568 2.143780
C -0.264900 3.129773 -1.747653
C 1.604957 -0.776864 -7.613275
C 0.333107 -0.972704 -2.679163
C 0.510278 0.127309 -3.545217
C -1.122593 -6.147218 1.066746
C 1.992488 -1.149470 -9.024086
C 0.322301 1.460042 -3.159705
C -0.169362 3.674057 -3.054894
C 0.288651 -0.564491 -7.266810
C 0.194267 2.664334 -3.910161
C -0.459661 -2.422433 0.564663
C 0.667219 -4.215518 1.867612
C -1.571380 -0.113041 -5.639339
C 2.230936 -0.352119 -5.303509
C -0.108481 -0.277089 -5.962423
C -0.103222 -2.152834 -0.781911
C 0.879774 -0.174082 -4.970782
C 3.309985 -0.199516 -4.263604
C 0.807894 -5.512644 2.309631
N 0.071763 1.795769 -1.836160
N -0.000284 -0.867154 -1.321079
Ta 0.383734 0.718264 -0.083587
C -0.364366 -3.845456 1.024069
H 2.809411 -1.154556 2.120961
C -0.092103 -6.486760 1.930981
H 4.335426 -1.310974 1.664488
H 3.154738 -1.665776 0.644949
H -4.647814 2.921216 5.784901
C -1.240652 -4.836104 0.616490
H -1.963146 4.768984 2.166792
H 0.705835 3.193358 3.972143
H -5.263885 2.182363 3.655343
H 0.690951 1.654611 4.410697
H -4.195053 1.316341 2.838218
H 0.986629 2.792775 5.496029
H 3.878745 2.225600 1.670324
H 4.732681 1.042927 2.329364
H 3.196001 1.240039 2.730553
O 0.114493 -7.732001 2.450426
H -2.693512 3.081449 8.632996
H -4.171208 3.345961 8.079432
H -3.087296 4.523547 8.061359