113
Ce1 B1 H47 C53 N10 O1
H 5.788902 -3.849175 -7.277441
H 1.729876 -3.555724 5.052149
Ce -0.872352 -0.227162 0.465542
C -3.484584 -0.545241 -2.056740
C -1.808954 4.134240 1.550131
H 5.573821 0.471354 5.702820
H 1.798652 -3.068388 3.527010
H 6.140284 -2.565330 -6.390539
B -3.494588 -2.987165 0.600649
C -4.536229 -2.180177 2.831165
H -2.452946 -5.615115 0.070580
H -5.414059 -2.932143 -1.570602
C -3.044418 -0.694586 3.377812
C -2.939379 3.929873 -3.551625
H -4.770067 -1.019477 4.583832
H -0.430936 2.140351 -4.409516
C -3.255748 4.998869 -4.386307
H 5.423764 -1.061399 8.094139
H 0.042992 -5.803762 -0.198806
H 6.594204 -1.436072 7.070472
H 5.577572 -2.565330 7.567800
C -1.307516 6.151709 -3.776666
H 1.257198 1.535110 5.246936
H 3.449272 -4.582800 -3.713257
C 5.421263 -3.162711 -6.683134
C 3.453024 -0.901573 -3.758845
C 4.219562 -1.603757 -4.691750
C -3.823461 2.716771 -3.471224
C 4.185799 -2.974064 -4.680560
H 1.130901 0.201485 -4.426094
C -4.602504 -1.278866 -2.510966
C 3.996978 0.246026 4.456599
C 1.701115 -2.774938 4.457842
C -1.822709 -4.910311 0.153468
C 2.650222 -1.533015 -2.828842
H 0.774517 6.094067 -2.353894
C -4.750059 -2.253540 -1.561899
H -4.178595 -3.715550 0.650796
H -2.360411 5.098433 -0.190517
C 2.829039 -1.834325 4.810116
H 0.968340 4.511533 -2.490659
C 0.865801 0.135982 -2.310792
H 0.199301 5.114153 -1.226617
C -1.330024 2.800614 1.705132
C -0.628510 2.127251 2.752007
C 2.238817 -0.788909 1.743260
C 2.946583 -0.631704 4.121317
H 0.977093 -3.519043 0.186624
C -1.382544 2.902797 -1.820509
C -2.491711 6.117648 -4.517270
C 2.162539 -1.035198 -0.481039
C 3.381747 -1.574936 1.358246
H -0.465949 3.211968 4.567254
H 2.150034 -3.403759 -2.196406
N 0.006728 0.858603 -1.515481
H -1.949007 4.770922 2.238102
C 3.726877 -2.177557 5.809746
N -1.297512 2.188823 0.493309
N 0.010480 0.980437 2.366578
O 4.846047 -3.774502 -5.569948
H -3.124448 0.204105 -2.515525
N 1.507292 -0.520088 0.611425
H -5.291513 -2.756597 2.822462
H -4.056049 4.946468 -4.894411
H 4.974846 2.006727 4.065782
H 3.391751 2.111530 3.858562
C -4.261126 -1.239565 3.811316
C 3.341732 -1.737382 0.015045
H 4.294590 1.367425 2.764440
H -2.340404 7.105422 -6.295218
N -2.101564 -3.628301 0.432387
H -2.562987 -0.031703 3.858562
C -0.164586 1.629434 -3.653992
H -2.585496 8.082715 -5.051898
N -3.807205 -2.100526 -0.607443
H -0.738552 6.908915 -3.858311
H -3.795951 7.215466 -5.636258
N -3.565864 -2.154762 1.893288
N -0.943629 -2.893890 0.478804
C -0.449693 -5.017735 0.007171
C 0.364363 5.218957 -2.186045
C 4.747260 -1.307687 6.160776
N -2.991899 -1.016595 -0.916201
C 1.814908 -0.802010 -1.839988
N -2.640517 -1.208124 2.219037
C 4.867305 -0.118166 5.472806
C -0.602250 1.825940 -2.308305
C -2.833089 7.225946 -5.455977
C 5.667606 -1.622098 7.327010
C -1.656397 3.104544 -0.455758
C 0.792024 1.558691 4.417227
C 3.439269 -3.631707 -3.739781
C -0.167087 2.475723 4.045889
C 2.672730 -2.929523 -2.831328
C -2.024035 4.309786 0.218536
C 1.982471 -0.277992 3.035070
C 0.706992 0.573537 -3.661866
H 3.484285 0.049519 -3.762990
H 4.757264 -1.137381 -5.321284
C 0.957086 0.649520 3.317303
H -4.683785 2.908038 -3.899755
H -3.972267 2.480963 -2.532103
H -3.390799 1.964805 -3.928766
C -0.934876 5.124634 -2.930380
H 4.045746 -1.918168 1.943849
H -5.126451 -1.132141 -3.290528
C -1.765188 3.997995 -2.786154
H 3.641845 -3.010746 6.254025
C 4.180797 1.545591 3.722626
C 0.056747 -3.752231 0.219364
H 3.968217 -2.222099 -0.509636
H 0.843293 -2.313802 4.567254
H 4.738507 -2.646553 -7.161398