113
Ce1 H52 C53 N4 O3
H 1.908375 0.048453 7.478614
Ce 0.193795 1.241151 -0.581670
H 5.139227 -0.768482 -1.486481
H 3.824192 -2.132246 -3.095434
H 0.044547 1.335423 -5.040774
H -8.918871 -0.982977 0.956868
H -0.300820 2.648874 -4.250448
H -9.640302 -1.823744 2.065474
H -1.531590 3.588944 -2.327878
H -8.570926 -0.749945 2.467447
H 2.594812 1.763089 9.323812
H -1.488423 -3.330505 -2.994611
H 3.887686 2.323159 8.636390
H 1.976173 2.440999 -4.517489
H 2.656916 3.263230 8.873138
H 1.942187 1.060022 -3.771142
H -3.049529 0.027268 3.342053
H -3.208759 -2.775731 -1.333816
H -2.979622 2.409222 -0.706356
H 4.117953 1.237444 3.398408
H 1.344901 -3.730367 -6.830002
H -1.918339 0.278836 -4.350456
H -2.254087 0.141136 -2.826509
H -2.381519 1.534029 -3.534275
H -1.227133 1.106363 4.569930
H 5.234678 0.567478 1.294842
H -2.016305 2.734937 1.588416
H 0.380915 4.620374 -1.058671
H 3.402712 3.427411 -2.973807
H 3.025920 3.476401 -1.454842
H 3.507692 2.131173 -2.099923
H 1.470031 -0.847924 -5.117730
H 0.069026 4.032499 1.355119
H 1.011553 -1.460956 -6.484669
H -0.031949 -1.239841 -5.335951
H 0.711001 -4.553921 -1.295451
H 1.869013 -5.576083 -1.561747
H 2.200015 -4.065349 -1.304428
H 1.833322 -6.275178 -3.802526
H -4.599940 0.564830 0.866372
H -6.809510 0.043157 1.303499
H 2.106482 -7.115945 -5.993746
H 0.861479 -6.604864 -6.797004
H 2.296914 -6.096432 -7.170685
H -3.572082 -3.240471 1.167335
H 1.740374 -1.172315 4.475427
H 1.272359 -1.431827 5.949559
H 0.263847 -0.854545 4.895874
H -5.797462 -3.825698 1.522130
H 1.315162 3.886854 3.396643
H 2.876477 3.949084 3.522139
H 1.978479 4.801768 4.484613
C 2.358682 1.968315 7.268067
C 2.929191 2.368177 8.658039
H 2.758250 3.877586 6.583506
C 2.114023 -1.243813 -2.250219
C 0.992859 -1.989250 -2.657326
C 4.213911 -0.780398 -1.581237
C 3.336942 0.701206 0.407904
C -1.723145 -0.160746 1.685293
C -8.813466 -1.407995 1.810553
C 3.482393 -1.536427 -2.467823
C -2.410455 -0.881026 0.704773
C 3.248009 -0.001861 -0.819940
C 0.118815 1.777653 -4.181470
C -1.842967 -1.392106 -0.516037
C -1.392512 3.538631 -1.409043
C -1.413193 -2.701585 -2.314067
C -0.055938 0.852147 2.821216
C -0.283540 -1.875382 -2.042656
C 1.521781 1.932566 -3.828185
C 1.157974 -2.844582 -5.016279
C -0.499224 3.791523 0.661043
C 1.217889 1.279813 3.172776
C -2.194559 0.190125 3.013132
C -2.362444 -2.395731 -1.389276
C 1.202763 -3.093502 -3.649537
C -2.205707 2.883229 -0.500655
C 3.709843 1.116956 2.571206
C 1.355777 -3.902492 -5.916322
C 2.319340 1.282461 2.280169
C -1.880280 0.715771 -3.497754
C -1.188480 0.791241 3.695327
C -0.313882 4.119886 -0.698538
C 4.330085 0.750196 1.406124
C -1.658498 3.058003 0.794019
C 1.473621 -4.397684 -3.191241
C -3.827839 -1.271618 0.971721
C 3.009333 2.937515 -2.247399
C 0.877179 -1.476845 -5.535290
C 1.566055 -5.202703 -5.470258
C 1.573137 -4.673085 -1.701377
C 1.650403 -5.417198 -4.112686
C -4.829402 -0.324927 1.014162
C 1.536625 1.523437 4.622384
C -6.166274 -0.628133 1.269847
C -6.510618 -1.941584 1.471080
C 1.721644 -6.362564 -6.448578
C 1.582609 0.533053 5.560409
C -4.219195 -2.571829 1.181303
C 1.177909 -0.855869 5.187119
C 2.015474 2.822323 4.993839
C -5.558702 -2.933293 1.410397
C 1.946776 0.747548 6.866823
C 2.435987 3.044763 6.324262
C 2.049758 3.970269 4.009402
N 2.017131 -0.252105 -1.301181
N 2.138309 1.074586 0.920901
N -0.432737 0.329150 1.568612
N -0.585025 -1.065068 -0.961023
O -0.552743 0.997792 -3.179312
O 1.648597 2.607828 -2.573720
O -7.782770 -2.402351 1.725465