93
Co1 H16 C49 N6 F21
H 0.330928 2.540242 1.357208
H -3.320477 3.555646 -1.222196
H -2.427787 1.406931 -1.210154
H -0.950979 -2.844881 -0.855637
H -0.460108 -5.058585 -0.428566
H 1.240048 -5.608176 1.030413
H 2.335125 -3.914087 2.170148
H 1.693989 -1.701473 1.813210
C -0.903145 4.029313 0.794257
C -1.941495 4.329532 0.068307
C 1.186882 0.698462 3.120523
C 1.938080 0.756926 1.927490
C 3.313258 1.126669 1.805184
F 2.266427 4.316891 6.202133
C 3.648874 1.061885 0.501664
C 2.476035 0.658959 -0.230753
C 1.875077 1.210414 4.351056
C 2.358509 0.497789 -1.618575
C 1.755127 2.518737 4.754173
C 2.375472 3.021209 5.856512
C 1.183247 0.085383 -2.282804
C 3.166653 2.196397 6.622544
C 0.997871 -0.066307 -3.692149
C -0.280378 -0.480293 -3.881210
C 3.318104 0.905455 6.258372
C -0.917684 -0.594060 -2.604810
C 2.686855 0.429845 5.125526
C -2.241974 -1.008046 -2.367692
C -2.817489 -1.124974 -1.087311
C -4.110277 -1.519999 -0.581902
C -4.070294 -1.398331 0.806468
C -2.796892 -0.921141 1.139904
C -2.063867 -0.534016 2.313034
C -2.284380 -0.424989 3.693828
C -1.113965 0.053781 4.249086
C -0.154370 0.237073 3.181586
C 3.579812 0.717423 -2.455246
C 3.856059 1.942001 -3.041560
C 4.981645 2.139513 -3.823635
C 5.852792 1.117188 -4.046385
C 5.620163 -0.099489 -3.466045
C 4.501847 -0.281200 -2.680521
C -3.084043 -1.275083 -3.600554
C -3.124026 -2.510721 -4.207552
C -3.870378 -2.735095 -5.359003
C -4.553726 -1.700130 -5.917869
C -4.512531 -0.456591 -5.375633
C -3.769814 -0.257499 -4.224573
C -0.423348 2.730470 0.811201
C -2.556993 3.354610 -0.693049
C -2.026308 2.073149 -0.665297
C -0.282801 -3.054276 -0.212843
C 0.021313 -4.373659 0.020770
C 1.002717 -4.699160 0.889046
C 1.641236 -3.711597 1.553318
C 1.265637 -2.390634 1.319127
C -0.939493 0.267095 5.707926
C -5.277057 -2.047752 -1.331446
F 3.817287 2.659366 7.693917
F 4.094746 0.091703 6.993505
F 2.858904 -0.859517 4.794594
N 1.451013 0.466187 0.659567
N 0.005562 -0.233797 -1.641718
N -2.054175 -0.782092 0.000983
N -0.786831 -0.146892 2.040698
N -0.963726 1.720787 0.100950
N 0.330274 -2.055652 0.435358
H -0.474053 4.702198 1.309772
H -2.276856 5.218322 0.061789
F 0.993025 3.359350 4.029405
F 6.944453 1.311541 -4.803485
F 6.487676 -1.109173 -3.673185
F -0.795312 1.550136 6.050208
F 0.113396 -0.361785 6.241831
F 3.022471 2.976966 -2.839660
F 5.210639 3.340389 -4.383031
F 4.316471 -1.486816 -2.126034
F -2.460064 -3.539366 -3.663482
F -3.912784 -3.945452 -5.923148
F -5.262518 -1.907123 -7.045634
F -5.166801 0.553093 -5.948973
F -3.729831 0.978140 -3.697046
F -5.779875 -1.180277 -2.187086
F -5.010503 -3.160142 -2.030098
F -2.021461 -0.173753 6.386688
F -6.280270 -2.376413 -0.500116
Co -0.291888 -0.157794 0.230202
H 3.889669 1.375787 2.516875
H 4.503919 1.248653 0.134269
H 1.646652 0.092162 -4.367969
H -0.685213 -0.663316 -4.720034
H -4.774130 -1.600457 1.410994
H -3.084988 -0.639093 4.158159