73
Ge1 H13 C39 N4 O1 F15
C 4.474702 -1.904157 0.573255
H 2.094354 4.117206 -0.353593
F -4.764061 5.024683 1.259701
C -2.339749 -4.468092 -0.126226
H 0.310664 -5.644394 0.390057
C 4.788732 -0.533617 0.509534
H -0.358220 4.171592 -0.570823
C -2.911284 -4.747794 -1.378919
C 3.545173 0.201378 0.442192
H -4.123440 0.238671 -0.702610
F -4.948710 3.778455 -3.306473
C -3.699499 -5.847955 -1.611355
H -4.013529 -2.207167 -0.524481
C 3.240564 1.543947 0.212653
F -2.926043 2.047411 -2.929217
C -3.982126 -6.718139 -0.554893
C -3.441994 -6.499039 0.644216
C -2.633891 -5.380231 0.844792
C -2.732287 2.623908 -0.602684
C -3.222173 3.405519 0.402367
C -4.302437 4.326982 0.227859
C -4.889673 4.403123 -1.007456
C -4.399786 3.674344 -2.095778
F 7.206763 3.750485 2.120656
H -1.284608 0.703287 2.398711
C -3.347785 2.793283 -1.876376
F 7.916471 4.690595 -0.281908
C -1.410220 -3.291790 0.093900
H -0.954877 0.159422 3.874426
F 6.336900 4.233748 -2.478103
C -0.066172 -3.551291 0.400919
H 5.093341 -2.625166 0.588461
H -0.361360 2.581952 3.682540
F 4.079024 2.783959 -2.226116
C 0.671799 -4.766441 0.451606
N 0.809658 -2.493085 0.551532
H 5.661735 -0.159127 0.510258
H 0.932443 1.719538 4.060520
C 2.018987 -4.440122 0.609460
N 2.524576 -0.754271 0.547187
H 0.709482 2.207463 2.552944
F -5.931938 5.251553 -1.194998
C 2.097495 -3.013641 0.594253
N 0.775428 1.202089 0.030180
H 2.741256 -5.046143 0.707213
N -1.171558 -0.793118 -0.040058
C 1.949901 2.016333 0.016422
C 4.421317 2.494934 0.124313
C 1.519680 3.365118 -0.269598
C 5.272338 2.759097 1.202497
F 4.930045 2.300697 2.405228
C 0.166210 3.397750 -0.401384
C 6.405986 3.539155 1.072884
C -0.329957 2.080043 -0.242806
C 6.785963 3.997555 -0.164603
C -0.556059 0.524589 3.045332
C -1.655164 1.598334 -0.381833
C 5.991467 3.744270 -1.265959
C -2.038280 0.271303 -0.333319
C 0.263560 1.895129 3.366832
C 4.823275 3.010829 -1.100141
C -3.338365 -0.267900 -0.525929
C -3.281839 -1.608916 -0.418762
F -2.695859 -3.910242 -2.429588
C 3.074128 -2.006714 0.610908
C -1.934650 -1.978744 -0.116813
Ge 0.607108 -0.595152 0.720102
F -4.245911 -6.049962 -2.830740
F -4.760920 -7.810531 -0.748228
F -3.680657 -7.356792 1.709367
F -2.129349 -5.189101 2.146724
O 0.391998 -0.415521 2.487051
F -2.704966 3.284315 1.637682