112
Ti1 H52 C54 N4 O1
H -1.734717 -8.337617 4.009933
H 1.760783 -5.096165 2.362597
H 1.599904 -3.587539 2.870712
H 1.038536 -4.011629 1.433516
H 1.010263 -3.253940 -3.152547
H 1.031802 -4.184506 -5.297235
H -1.074739 -1.007883 -6.660792
H -1.127148 -0.112432 -4.521037
H 1.491482 -4.265543 -7.541370
H -3.346814 -5.610745 4.629812
H 0.455967 -4.549170 -8.727741
H 0.159485 -5.104269 -7.257071
H -3.923661 -3.037843 2.771116
H -3.252159 -2.277452 4.008030
H -4.257850 -3.494347 4.267568
H -2.493136 -7.723092 5.277590
H 4.136959 1.616342 0.308714
H 5.467335 1.708184 -0.575524
H 4.071883 1.335417 -1.265381
H -3.808242 -1.099724 1.598634
H -3.496100 -1.494101 0.079248
H -3.008480 -0.572988 -2.025222
H -2.352550 0.697931 -2.744283
H -3.912309 0.696580 -2.388013
H -1.107670 2.680619 -2.262697
H -1.185166 3.932630 -1.267735
H -2.463894 3.523397 -2.138836
H -1.110407 4.267580 0.987350
H -1.560079 3.681418 2.407967
H -4.165778 1.648757 3.019075
H -2.648682 1.895918 3.463308
H -3.176991 0.406200 3.214651
C -0.096775 -0.988840 -2.243222
C 0.496613 0.281945 -2.113898
H -4.823227 -0.675634 0.437020
C 1.263962 0.963595 -3.113040
C 1.799011 2.068390 -2.532908
C 1.387679 2.102020 -1.168434
C 1.849421 3.003279 -0.196831
C 1.469049 2.906170 1.143856
C 1.995761 3.555811 2.302862
C 1.445007 2.950470 3.405548
C 0.582877 1.928467 2.931974
C -0.037130 0.783829 3.473110
C -0.514826 -1.151318 4.506481
C -0.766517 -1.283002 3.103358
C -1.050995 -2.412378 2.337681
C -1.036250 -2.376046 0.931630
C -1.329229 -3.470036 0.066534
C -1.083626 -3.082953 -1.212290
C -0.610555 -1.733834 -1.170250
C -1.211382 -3.752853 3.003676
C -2.412572 -4.100094 3.637179
C -2.532021 -5.373174 4.202321
C -1.511319 -6.294962 4.161579
C -0.317099 -5.922735 3.559837
C -0.150430 -4.659649 2.978880
C -1.674408 -7.686761 4.739152
C 1.178722 -4.307412 2.356727
C -0.083557 -1.604581 -3.601016
C 0.566311 -2.803513 -3.861940
C 0.583059 -3.361988 -5.138895
C -0.062234 -2.703973 -6.174769
C -0.670640 -1.479785 -5.941633
C -0.692059 -0.943595 -4.670583
C 0.543686 -4.363056 -7.770289
C 2.974540 3.910210 -0.593071
C 5.276208 4.132250 -1.276721
C 4.234133 3.336608 -0.814363
C -3.560118 -3.144541 3.674149
C 4.501456 1.870121 -0.564227
H 7.074094 5.754596 -2.051411
C -3.130502 0.485481 0.482882
H 6.389345 7.093046 -1.501861
C -2.717532 1.006679 -0.749438
H 6.051526 6.567661 -2.975292
C -2.148374 2.274897 -0.544889
C -2.216211 2.556093 0.833619
C -2.833487 1.435361 1.470523
C -3.879890 -0.809344 0.664748
C -3.023983 0.404850 -2.094275
C -1.685915 3.181694 -1.649858
C -1.844602 3.850243 1.485497
C -3.242189 1.338118 2.918263
N -0.643172 -1.290565 0.150908
H 3.770890 6.987699 -1.329304
N 0.555288 1.008975 -0.932047
N 0.579924 1.942649 1.564301
H 1.586429 6.920169 -0.456267
N -0.507318 -0.065701 2.507094
H 1.103567 5.620886 0.342937
O -0.144108 -3.163584 -7.457642
H 0.847231 5.731636 -1.233226
H 1.610738 3.173590 4.314542
H 0.158825 0.496691 5.573871
H -0.631791 -1.827701 5.162396
H -2.619705 4.449912 1.486685
C 6.256806 6.296189 -2.057022
C 2.800137 5.290528 -0.769146
C 3.881679 6.051189 -1.217847
C 5.111462 5.483935 -1.505160
C 1.467174 5.948408 -0.505940
C -0.076280 0.122033 4.732279
Ti -0.745729 0.693204 0.610973
H 1.377543 0.692528 -4.016774
H 2.352667 2.708982 -2.963183
H 2.614716 4.277034 2.309373
H -1.642426 -4.324969 0.337919
H -1.204320 -3.611850 -1.992700
H 0.405216 -6.539962 3.541684
H 6.123496 3.735442 -1.440312
H -0.902241 -7.898670 5.304356