97
Zr1 H42 C49 N4 O1
H 2.936053 2.254035 -3.468874
Zr 0.849787 -0.510458 -0.456005
C -0.870163 -7.047054 2.268951
C -0.419862 -5.851778 1.658299
C -2.168384 -7.229996 2.603838
H -0.692120 -4.198551 -3.740186
H 3.903181 3.450502 -3.912286
H -1.195872 -5.301760 -1.537301
C -3.026494 -6.197027 2.251944
H 3.214847 3.472328 -2.466643
C -2.626184 -4.986274 1.625296
H 0.369222 7.270067 -6.643620
O -0.788256 4.546171 6.796405
H -1.370840 -2.877080 3.516375
H -1.188181 -0.468274 4.166307
C 1.002566 -5.694233 1.340014
H 1.797803 7.569680 -5.987614
C -2.617531 -8.499679 3.347109
H 1.678594 6.543854 -7.208514
C -3.610809 -3.908264 1.255584
H -1.876515 4.230288 -2.701509
H 0.436517 1.228209 -5.374127
H -2.407186 4.335450 -4.207894
H 0.084659 -1.277823 -5.457140
H -1.847674 2.944533 -3.653123
H -0.244126 -7.738346 2.449353
H -3.951130 -6.307745 2.445303
H 1.294050 -4.791824 1.586826
H 1.524777 -6.355365 1.841940
H 1.140233 -5.829555 0.380099
H -2.828261 -8.276061 4.277666
H -3.414691 -8.869334 2.910987
H -1.897665 -9.162994 3.326052
H -3.326246 -3.478290 0.422618
H -4.499105 -4.305697 1.133291
H -3.647340 -3.240187 1.971521
C 3.074873 -1.476044 -0.972407
C 2.733014 -1.979036 0.278256
C -0.150297 2.132603 0.877975
C 2.669564 -0.873842 1.174190
C -0.098384 3.599117 0.711949
C 2.977199 0.322426 0.432742
C 0.171759 3.871944 -0.595811
C 3.225230 -0.073817 -0.873804
C 0.299619 2.585593 -1.292311
N -0.112996 -2.281228 -1.251007
C 0.500544 2.368324 -2.663040
N -0.472929 -0.972258 1.099884
N 0.109462 1.531393 -0.355478
N 0.390564 -0.127985 -2.501873
H 3.187929 -1.990147 -1.764069
H 2.572659 -2.888985 0.495508
H 2.461141 -0.918685 2.099078
H -0.230667 4.242193 1.398528
H 3.005271 1.208367 0.772893
H 0.261550 4.734273 -0.984555
H 3.459033 0.505964 -1.589944
C -0.602521 2.215145 3.304388
C -0.129147 -2.466155 -2.615662
C 0.474587 2.465550 4.114474
C -0.594830 -3.803697 -2.881304
C 0.374798 3.239384 5.262282
C -0.877662 -4.416216 -1.666275
C -0.803637 3.786822 5.640296
C -0.595214 -3.446146 -0.644404
C -1.894781 3.542171 4.868881
C -0.851321 -3.472734 0.746977
C -1.779418 2.763972 3.706900
C -0.794601 -2.291744 1.557671
C -1.963807 5.196787 7.197905
C -1.123193 -2.165748 2.938118
C 0.676857 3.578879 -3.572945
C -1.020905 -0.818285 3.299934
C 1.933355 3.948732 -3.969788
C -0.622325 -0.047229 2.150506
C 2.078328 5.018805 -4.891841
C -0.453510 1.394682 2.054939
C 1.021793 5.721605 -5.407939
C -0.200288 5.346594 -4.991051
C -0.397367 4.280885 -4.070821
C 3.095447 3.219740 -3.406513
H 1.319046 2.097284 3.882848
H 1.147923 3.387008 5.792149
C 1.236369 6.882158 -6.402882
C -1.743463 3.917778 -3.620728
H -2.739816 3.898929 5.117921
C 0.481124 1.051616 -3.262557
H -2.555235 2.615158 3.180273
C 0.382296 0.651206 -4.622149
H -2.662908 4.531885 7.371423
C 0.188294 -0.753005 -4.671147
H -1.789993 5.710494 8.015281
C 0.176565 -1.234369 -3.331397
H -2.261059 5.803751 6.488649
C -1.300660 -4.796784 1.352163
H 2.955280 5.260083 -5.165581
H -0.959378 5.811688 -5.323509