91
H34 Pt1 C51 N5
H -4.502372 0.659837 -5.819432
H -4.578072 -1.548338 -6.545894
H -3.263261 -3.158296 -5.486682
H -0.256566 0.858468 -4.577517
C -2.498131 -0.607454 -3.590074
C -3.236944 0.346209 -4.250491
C -4.000542 -0.005752 -5.363457
C -4.033093 -1.307890 -5.806214
C -3.267668 -2.263875 -5.166917
C -2.506370 -1.921207 -4.060179
H 2.501204 -5.904286 -2.120373
H -1.987653 -2.584473 -3.619139
H -2.913022 -5.193395 5.045626
H -5.085987 -4.475535 5.459105
H -4.230592 -2.423012 0.750313
H -4.106736 -1.735353 -1.629000
H -5.864150 -2.497354 4.494116
H -4.500168 -1.292789 3.027783
H -3.226624 1.247599 -3.948921
H -2.893151 3.315222 2.861155
C -3.228105 -4.388416 4.653680
C -4.516798 -3.966760 4.892574
C -2.347260 -1.434503 1.010405
C -3.528342 -1.925854 0.348187
H -1.491266 -3.924943 3.699603
C -3.459377 -1.548338 -0.959247
H 1.622500 -0.631847 5.035600
H -0.570257 -1.796918 5.009942
C -2.851527 -2.477607 3.226584
C -2.387026 -3.642678 3.840387
H 1.941525 1.833039 -3.959365
H 4.673336 2.162929 0.953840
C -4.983324 -2.799366 4.310373
H 4.023481 1.233660 3.172297
C -4.163933 -2.071052 3.455755
H 2.889983 -4.253672 1.062291
H 1.311206 -3.950498 -2.621309
H 2.474837 -6.348011 -0.583293
H 3.760503 -5.604596 -1.180061
H 5.264232 1.232499 -1.522891
H 6.866647 2.614786 -2.520625
H 6.266971 4.678924 -3.365477
H 4.053948 5.386330 -3.279044
H 2.416880 3.998235 -2.349362
H 0.624268 3.027149 -0.175682
H -1.938901 5.277141 2.028732
H -2.095439 1.227852 2.178860
H 1.923789 -2.229028 1.634389
H 0.337441 -1.942116 -2.053720
Pt 0.162455 0.010743 0.375130
C 1.257712 -0.177667 2.983361
C 1.037795 -0.708511 4.290586
C -0.170629 -1.348545 4.274697
C -0.737297 -1.230064 2.956178
C -1.944028 -1.670305 2.375502
C -2.243627 -0.822347 -1.148044
C -1.719957 -0.294987 -2.348046
C -0.492329 0.405449 -2.507192
C 0.114882 0.894477 -3.702935
C 1.325900 1.424160 -3.363599
C 1.508485 1.259215 -1.949401
C 2.650553 1.640215 -1.167357
C 2.842481 1.346334 0.198093
C 3.879632 1.677386 1.143858
C 3.521321 1.168611 2.368129
C 2.258252 0.525093 2.214471
C 2.365723 -3.789037 0.420208
C 2.189299 -4.336144 -0.840902
C 3.686128 2.473073 -1.835821
C 5.006710 2.072325 -1.886617
C 5.962241 2.899375 -2.473065
C 2.783295 -5.663837 -1.213371
C 5.606239 4.117878 -2.979018
C 4.294106 4.536049 -2.929376
C 3.323921 3.717131 -2.369763
C -0.645328 1.891118 0.923936
C -0.092378 3.073612 0.444882
C -0.558466 4.331610 0.850815
C -1.612823 4.429183 1.753616
C -2.174547 3.267597 2.240802
C -1.693596 2.014246 1.829461
C 0.073783 5.516428 0.335367
C 1.021512 -1.850350 -0.140214
C 1.789654 -2.575180 0.760656
C 1.435207 -3.608992 -1.742765
C 0.857784 -2.404427 -1.408664
N 0.168617 -0.509880 2.245497
N -1.620358 -0.758460 0.072118
N 0.384028 0.638928 -1.478660
N 1.917733 0.657514 0.906575
N 0.614957 6.444535 -0.094373