100
Mn1 P1 H23 C55 N4 O1 F15
Mn -0.526807 1.110774 0.167835
P -0.476407 -1.594267 -2.076912
H 4.238004 2.408375 -0.115789
H -5.500594 0.646833 -0.088906
H 4.079564 0.678838 1.649211
F 5.653447 6.397319 -3.692432
H -4.778053 2.535114 -1.632081
H 0.193685 -2.137580 3.954458
F 5.294225 6.562719 -1.008814
H -2.319501 -2.150382 3.401920
H -2.253940 4.708876 -2.636056
H 0.207344 5.159503 -2.699523
H 2.037599 -2.867288 -2.650841
H 3.458096 -4.352309 -1.432474
H -5.379032 -1.407872 -2.049625
H 2.775165 -5.184432 0.612158
H 0.521492 -4.608347 1.442386
H -5.638546 -3.789025 -2.197076
H -0.653149 -3.046515 0.332429
H -3.029749 -0.537342 -1.996705
H -3.712681 -5.171630 -2.277372
H -1.506813 -4.287019 -2.226920
H -0.247488 -3.200138 -4.464600
H 0.453199 -2.828882 -6.587721
H 1.300034 -0.729371 -7.180297
H 1.136130 1.075697 -5.759466
H 0.617103 0.576423 -3.422833
C 2.186478 2.270114 -0.228822
C 3.515462 2.011516 0.206864
C 3.484048 1.050093 1.157748
C 2.125015 0.663476 1.334543
C 1.608719 -0.297947 2.224633
C 0.261979 -0.661521 2.375577
C -0.300757 -1.651108 3.249976
C -4.611418 1.056494 -0.149640
C -1.642033 -1.699755 3.014280
C -1.954816 -0.738332 2.001674
C -4.248099 2.094728 -0.985702
C -3.211409 -0.433647 1.451871
C -3.442240 0.623790 0.539330
C -2.863114 2.322602 -0.796621
C -1.816864 3.099677 -1.348122
C -1.611984 4.230085 -2.183401
C -0.276171 4.466920 -2.248014
C 0.390370 3.459411 -1.467644
C 1.746671 3.228977 -1.150595
C 2.775165 4.073902 -1.840825
C 2.988240 4.007332 -3.196634
C 3.947075 4.783127 -3.840460
C 4.710592 5.654937 -3.095112
C 4.535762 5.729188 -1.746776
C 3.570097 4.957233 -1.138301
C 2.608530 -0.963646 3.107899
C 2.693213 -0.701207 4.460170
C -4.387416 -1.278572 1.770820
C 3.684829 -1.215843 5.255911
C -4.458441 -2.627893 1.378625
C 4.645031 -2.037725 4.689952
C -5.601668 -3.366562 1.503462
C 4.593128 -2.341130 3.355855
C -6.727139 -2.809680 2.058208
C 3.582390 -1.825214 2.588506
C -6.688894 -1.498765 2.476348
C -5.544302 -0.770337 2.319861
C 0.557005 -2.801998 -1.270087
C 1.789013 -3.182215 -1.798012
C 2.574383 -4.109072 -1.105168
C 2.157795 -4.609627 0.107800
C -4.504881 -2.001880 -2.043526
C 0.944910 -4.217889 0.645224
C 0.160905 -3.311514 -0.044753
C -4.687906 -3.376804 -2.131181
C -2.111890 -2.320647 -2.131427
C -3.218238 -1.479562 -2.046774
C -3.603412 -4.214048 -2.209784
C -2.314038 -3.708373 -2.213529
C 0.106270 -1.343862 -3.764121
C 0.078953 -2.361613 -4.723011
C 0.520127 -2.108135 -5.999880
C 0.972227 -0.868912 -6.358219
C 0.988617 0.146279 -5.423554
C 0.548810 -0.081595 -4.119943
N 1.346746 1.415075 0.477689
N -0.768155 -0.113599 1.626028
N -2.413609 1.426341 0.142333
N -0.575978 2.679775 -0.921071
O -0.494709 -0.259669 -1.389490
F 2.277035 3.162791 -3.964470
F 4.144442 4.674311 -5.154225
F 3.415891 5.092037 0.193308
F 1.800349 0.119779 5.027639
F 3.732908 -0.949436 6.573834
F -5.639639 -4.641375 1.068663
F 5.611105 -2.560811 5.472171
F -7.853702 -3.526330 2.178718
F 5.531885 -3.143553 2.830389
F -7.781994 -0.937530 3.037925
F 3.539365 -2.149614 1.292242
F -3.372717 -3.217804 0.855241
F -5.567795 0.522399 2.744555