93
P1 H27 C47 N4 O4 F10
P -5.071036 -0.271504 -0.816772
H -0.349746 -3.717222 -2.044169
H -0.573189 -1.594310 -3.295430
H 1.396532 1.857249 -4.198402
C -3.738631 0.558096 -3.154502
H 0.388019 2.406227 -6.204290
C -3.646033 0.989979 -4.463489
H -1.882645 2.052895 -6.562254
C -2.901223 2.619395 0.161663
C -4.800489 1.022100 -5.252299
C -5.996211 0.618542 -4.678267
C -6.064653 0.224037 -3.352511
C -4.931334 0.175563 -2.539513
C -4.465324 -2.406097 0.529302
C -4.150290 -3.725983 0.390631
C -3.923827 1.626561 0.522852
H -3.221290 -3.807745 0.090715
H -4.766268 1.311190 -6.155916
C 0.754385 -4.903951 0.312911
H -6.786313 0.613286 -5.204571
H 0.142433 3.591788 -1.982896
C 1.602864 -5.665513 -0.466548
H -6.907093 -0.020376 -2.985839
H 1.176108 4.765668 -0.073755
C 1.401564 -7.019563 -0.688098
H -3.839281 -1.991443 1.174282
C 0.331655 -7.632784 -0.136318
H -2.022549 2.304024 0.461579
H -5.379226 -2.330175 0.903390
C -0.533935 -6.926120 0.661522
H -4.745131 -4.134797 -0.273699
H -2.892165 2.739119 -0.809032
C -0.310492 -5.579954 0.869206
H -4.259998 -4.178598 1.251679
H -3.811099 1.454275 1.490322
H -4.797469 2.082096 0.419655
N 0.752372 -1.215865 -0.476222
N 1.603871 1.611376 0.028797
C 2.845892 4.485047 2.164326
N 2.400012 0.778856 2.470046
C 2.211797 5.108196 3.229833
N 1.763904 -1.657676 1.926328
C 2.396993 6.433045 3.517494
C 3.218297 7.205412 2.745130
C 3.859437 6.635700 1.679623
C 3.681287 5.292454 1.398412
O -2.513721 0.541159 -2.532096
H 1.106660 -0.779602 0.200362
H 1.764911 0.598685 1.886984
H 1.375395 -1.010290 1.474197
O -6.448129 -0.217775 -0.344969
H -3.107556 3.472064 0.597024
C 0.326622 -0.628341 -1.640411
O -4.403928 -1.670524 -0.741954
C 0.358830 0.739726 -1.941617
O -4.046620 0.531523 -0.009257
C 0.852015 1.783370 -1.141519
F -1.197219 -4.931984 1.636087
F -1.564591 -7.562994 1.250712
F 0.129348 -8.953546 -0.315300
C 1.839392 2.866143 0.610569
F 2.254070 -7.719803 -1.457237
F 2.682839 -5.087333 -1.020585
C 2.915340 2.023110 2.661928
C 3.863463 1.857249 3.705828
C 3.887619 0.522763 4.076692
C 2.969691 -0.156452 3.271111
C 2.597286 -1.496194 2.967648
C 2.967678 -2.778410 3.476860
C 2.357739 -3.702622 2.689017
C 1.624001 -2.983693 1.693490
C 0.967763 -3.438937 0.529624
C 0.552078 -2.584224 -0.502344
F 1.346207 4.408540 3.989619
C -0.068932 -2.861925 -1.740383
F 1.715592 7.004801 4.539465
C -0.195751 -1.687169 -2.427287
F 3.394434 8.497556 3.026987
C -0.260167 1.151168 -3.241574
F 4.653566 7.386750 0.902745
C 0.464513 1.703359 -4.303534
F 4.325447 4.781145 0.348707
C -0.141400 2.033331 -5.508679
C -1.486084 1.837976 -5.725715
C 0.622533 3.176842 -1.273418
C -2.249011 1.314986 -4.680847
C 1.198251 3.827732 -0.224035
C -1.615923 1.006331 -3.479572
C 2.542935 3.068506 1.798300
H 4.392882 2.546392 4.086366
H 4.430123 0.140230 4.757145
H 3.532325 -2.952156 4.221812
H 2.410077 -4.645814 2.783507