110
Cu1 H50 C51 N5 O3
C -7.311892 5.661625 -2.174659
C -6.602266 4.966388 -4.455331
H 5.788160 -7.748415 1.739533
H 7.028287 -8.525086 1.092227
H 5.866515 -7.947748 0.154105
H 8.729496 -7.299914 -0.246101
Cu 0.286444 -0.453052 -0.310194
H -3.586827 2.322789 1.071456
H -2.250654 2.037158 3.116976
H 2.777436 -0.014518 3.924070
H 4.098634 -1.648080 2.601912
H 2.992015 -4.099639 -2.304435
H -9.046380 4.200656 -3.499151
H 1.367469 -3.304736 -4.042262
H -8.532168 3.213712 -2.349003
H -4.656720 0.559173 -2.555174
H -6.482516 1.802577 -3.243505
H -8.175545 2.913496 -3.881312
H -3.015595 3.870054 -0.946840
H -6.441059 4.207949 -5.055022
H 0.032027 3.295147 3.346720
C 6.390246 -7.790955 0.968427
H -0.205893 4.345294 5.386624
H 0.310259 0.821710 7.269251
H 0.603367 -0.239376 5.218976
H -2.026976 4.496010 8.574212
H -2.458256 3.340119 7.553965
H -1.793960 4.688051 7.001756
H 0.417143 4.949372 8.969381
H 1.527015 4.088835 8.201297
H 0.471231 2.045666 9.181535
H -1.059246 1.705341 8.860486
H 3.620807 -3.963509 2.301665
H 5.319599 -5.521714 2.547982
H 1.358134 -0.871409 -5.399646
H 6.582493 -4.771782 -1.221364
H 0.781545 0.560389 -5.841589
H 4.895083 -3.189269 -1.455668
H 1.625677 -0.572409 -7.700107
H 0.621629 -1.787857 -7.419698
H 0.047326 -0.359705 -7.860162
H 8.456137 -5.339396 1.998658
C -0.216853 -0.912734 -2.988332
H 8.702634 -6.913402 2.143844
C -0.872857 -0.447218 -4.141922
H 7.456601 -6.227889 2.878083
C -1.822328 0.461938 -3.701913
H 7.556649 -6.752963 -1.188493
C -1.742690 0.549450 -2.277644
C -2.421761 1.305459 -1.311800
H 8.575520 -5.727124 -0.502398
C -2.003574 1.346784 0.031535
C -2.731791 1.910752 1.126031
C -2.005457 1.758821 2.241803
C -0.777094 1.090324 1.862586
C 0.283777 0.742706 2.732149
C 1.313904 -0.161587 2.380441
C 2.522899 -0.404677 3.094683
C 3.245859 -1.301678 2.367848
C 2.513164 -1.627418 1.206206
C -7.027805 4.446177 -3.078190
C 2.930392 -2.483093 0.148928
C 2.331204 -2.456353 -1.113562
C 2.420175 -3.344846 -2.234433
C -8.311000 3.619672 -3.213824
C 1.529423 -2.912147 -3.191965
C 0.905076 -1.762333 -2.654877
C -3.632836 2.089423 -1.708442
C -4.683807 1.491422 -2.374965
C -5.775182 2.235276 -2.780705
C -5.863972 3.599009 -2.527184
C -4.823761 4.181209 -1.825095
C -3.719034 3.443432 -1.422274
C 0.291015 1.411203 4.060756
C 0.073735 2.781013 4.143999
C -0.081653 3.403322 5.357843
C -0.062149 2.683777 6.547188
C 0.229116 1.326121 6.468846
C 0.405203 0.689226 5.246567
C -0.391420 3.399676 7.869487
C -1.796988 4.040217 7.738300
C 0.634707 4.489933 8.130446
H -7.313672 5.530356 -4.825525
C -0.422136 2.426102 9.048281
C 4.059083 -3.425066 0.376360
C 4.215429 -4.128810 1.577997
H -7.387344 5.366271 -1.241615
H -8.151720 6.084601 -2.451255
H -4.866241 5.106165 -1.614188
H -5.780928 5.492677 -4.366907
C 0.654350 -0.416831 -5.926618
C 0.744989 -0.817929 -7.347153
H -6.579569 6.307028 -2.253291
N -0.768616 -0.347551 -1.901181
C 5.228117 -5.062274 1.721168
N -0.798815 0.854527 0.515215
C 6.121830 -5.345474 0.676612
N 1.306566 -0.932181 1.233622
C 5.980201 -4.621067 -0.502844
N 1.406913 -1.483995 -1.441010
C 4.965850 -3.675448 -0.643161
N -2.605331 1.278719 -4.602513
C 7.154287 -6.462471 0.838144
C 8.020081 -6.213304 2.076850
C 8.089599 -6.570645 -0.386848
O -3.239296 0.703812 -5.469480
O -2.570195 2.497813 -4.449463
O -0.657846 -0.793620 -5.436854
H 0.623208 5.134120 7.393325
H -0.699396 2.902557 9.858698