115
Cu1 H53 C55 N6
Cu 0.015491 -0.350859 -0.344979
H -3.672845 1.589829 6.143834
H -0.434897 3.645642 2.529700
H -4.285869 4.622944 3.560568
H 1.413038 4.202293 0.953266
H 3.139845 1.687875 -3.559417
H -4.644821 2.690480 7.640237
H 3.005423 -0.687380 -4.296757
H -6.021539 3.484340 7.828151
H 0.513444 -5.083658 -1.899456
H -5.959498 2.209736 6.862403
H -4.201671 5.758386 5.835474
H -1.164617 -5.052030 -0.046394
H -4.907756 5.543316 7.255119
H -3.507403 4.834851 6.944851
H -6.881250 3.541270 5.013160
H -2.940171 3.572898 2.005063
H -6.962494 4.812712 5.980654
H -6.198799 4.920247 4.578082
H 1.356906 4.882293 -1.412909
H 2.792711 6.593363 -1.966384
H 5.902146 4.015689 -2.002530
H 4.472249 2.298294 -1.447018
H 5.947938 7.412525 -0.637654
H 5.798744 8.551130 -1.750403
H 4.492929 7.886944 -1.106380
H 6.927299 5.445270 -3.297672
H 4.002510 7.611781 -3.657974
H 5.500357 8.032432 -4.032787
H 4.927216 6.612339 -4.499197
H 4.073414 -2.714728 -3.176211
H 5.120725 -4.270821 -4.546812
H 1.548937 -5.754170 -5.625416
H 0.473560 -4.201240 -4.316358
H 4.630306 -5.143751 -7.661688
H 5.761815 -5.055193 -6.532070
H -6.194368 -1.202915 4.495396
H 5.659891 -6.351937 -7.465672
H -5.142626 -1.734263 5.566282
H 5.444224 -7.876402 -5.485441
H -6.829549 -3.097426 5.949525
H 5.689434 -6.576495 -4.586652
H -7.280085 -3.138542 4.408300
H 4.407254 -7.496867 -4.327106
H -6.291861 -5.188030 4.958142
H 3.767641 -7.889053 -7.257509
H -4.993432 -4.450046 5.516773
H 2.649426 -7.658169 -6.135550
H 2.723284 -6.684030 -7.402846
H -5.695086 -4.833798 2.802564
H -4.370068 -5.346170 3.543251
C -1.632879 -2.179268 0.904789
C -2.694961 -2.361128 1.795133
C -2.934262 -1.123529 2.426494
C -1.969673 -0.189873 1.898509
C -1.727417 1.174555 2.109186
C -0.717036 1.890926 1.374463
C -0.157190 3.126628 1.784424
C 0.853192 3.436582 0.920314
C 0.904893 2.389698 -0.040634
C 1.836985 2.258443 -1.095142
C 1.996518 1.082517 -1.890084
C 2.693741 0.983206 -3.105318
C 2.609542 -0.317017 -3.516375
C -2.754048 1.373494 4.366975
C 1.829599 -1.009668 -2.570588
C -3.553195 1.990554 5.291084
C -4.198716 3.200638 5.008858
C 1.460307 -2.389910 -2.616480
C 0.506058 -2.934542 -1.777635
C -3.912146 3.776266 3.771395
C 0.166310 -4.308775 -1.469795
C -0.748056 -4.296440 -0.445984
C -5.099788 3.901828 6.011041
C -0.953382 -2.919045 -0.096821
C -5.464648 2.987782 7.193070
C -2.520656 1.905475 3.113410
C -4.364159 5.119502 6.560241
C -6.402648 4.331968 5.335437
C -3.104136 3.151298 2.841420
C 2.745442 3.381866 -1.400436
H 7.435444 6.931781 -3.000904
C 2.278657 4.694423 -1.544634
H 7.246367 5.897549 -1.796754
C 3.138368 5.713791 -1.876215
C 4.515087 5.502200 -2.086437
C 4.975963 4.199131 -1.898544
C 4.120683 3.171224 -1.567109
C 5.417635 6.659781 -2.490808
C 5.413204 7.722479 -1.398677
C 6.893324 6.188525 -2.661890
C 4.916876 7.286014 -3.784996
C 2.151621 -3.297947 -3.568284
C 3.549020 -3.334951 -3.669874
C 4.172384 -4.273984 -4.487832
C -4.573917 -2.094822 3.644745
C 3.458913 -5.209537 -5.221801
C 2.070377 -5.138691 -5.124964
C -5.610887 -1.968310 4.726116
C 1.421901 -4.217370 -4.339645
C 4.201928 -6.298169 -6.009104
C -6.500141 -3.144868 5.017395
C 5.147314 -5.656123 -7.004932
C -5.690654 -4.416309 4.813503
C 5.008460 -7.136309 -5.011603
C 3.250633 -7.215379 -6.768738
C -4.294732 -3.356775 3.047770
C -5.015589 -4.596588 3.482992
N -1.172003 -0.908775 1.043604
N -0.096626 1.452564 0.237595
N 1.451444 -0.131678 -1.571051
N -0.234002 -2.142896 -0.933542
N -3.352300 -3.492775 2.122309
N -3.907715 -0.980254 3.323971
H -2.344873 0.549271 4.596718