101
H36 Pd1 C52 N4 O8
H -9.590092 -6.212652 2.575469
H 1.891315 3.661448 -3.010618
H 4.980036 2.018568 -1.415035
H -9.023930 -7.141943 1.446991
H -4.144553 4.462529 -4.685433
C 4.159959 -2.834647 5.868398
H 8.509523 7.294918 -2.919944
C -2.610296 -1.504143 -0.517861
H 9.590092 6.212652 -2.575469
C -2.455900 -2.313732 0.591643
H 9.023930 7.141943 -1.446991
C -3.536670 -3.329516 0.863798
C 2.568005 -1.732043 3.840108
C -4.308314 -5.617202 0.881199
H -0.243073 3.091567 -4.050914
C -3.306419 -4.688237 0.676561
H -3.877382 1.007928 -6.719507
C -1.766825 1.159036 -2.711811
Pd -0.000000 0.000000 0.000000
C 3.839085 -3.587803 4.757502
C -0.530316 1.736384 -2.442439
H -2.582706 0.127863 -5.031773
C 2.610296 1.504143 0.517861
H 6.649088 3.558676 -1.778693
C 2.455900 2.313732 -0.591642
C 3.067777 -3.043013 3.753798
C -2.309895 0.086819 -2.003928
C 3.536670 3.329516 -0.863798
C 5.017527 -3.431529 6.924305
C -1.386541 -2.274663 1.482587
C 4.308314 5.617202 -0.881199
H -7.068507 3.289254 -8.526689
C 3.306419 4.688237 -0.676561
H -5.822533 3.841402 -9.301441
C -3.566878 -0.525256 -2.290701
C 1.766825 -1.159036 2.711811
H -6.335832 2.386204 -9.577996
C -3.736714 -1.514995 -1.396972
C 0.530316 -1.736384 2.442439
C 2.309895 -0.086819 2.003928
C -6.620894 -6.227107 1.503468
C 3.675626 -1.523677 5.972109
C 1.386541 2.274663 -1.482586
C 2.895257 -1.000591 4.956572
C 3.566878 0.525256 2.290701
C -5.810987 -3.841750 1.492331
C -1.268731 -3.049524 2.688145
C 6.216108 -3.060377 8.905264
C 3.736714 1.514995 1.396972
C -4.808757 -2.923637 1.280036
C -5.572345 -5.185277 1.281428
C 6.620894 6.227107 -1.503468
C -4.159959 2.834647 -5.868398
C -0.097336 -2.732634 3.263778
O 5.393112 -4.577542 6.923609
C 5.810987 3.841750 -1.492331
C -2.568005 1.732043 -3.840108
O 5.347129 -2.556825 7.866061
C -8.809286 -6.669885 2.255202
C 1.268731 3.049524 -2.688145
C 4.808757 2.923637 -1.280036
N -1.736281 -0.513101 -0.918090
C 5.572345 5.185277 -1.281428
C -3.839085 3.587803 -4.757502
N -0.274556 -1.445540 1.390708
C 0.097336 2.732634 -3.263778
O -7.754696 -5.702502 1.987223
C -3.067777 3.043013 -3.753798
O -6.467841 -7.404593 1.292565
C -5.017527 3.431529 -6.924305
C 8.809286 6.669885 -2.255202
N 1.736281 0.513101 0.918090
N 0.274556 1.445540 -1.390708
O 7.754696 5.702502 -1.987223
O 6.467841 7.404593 -1.292565
C -3.675626 1.523677 -5.972109
C -2.895257 1.000591 -4.956572
C -6.216108 3.060377 -8.905264
H 4.144553 -4.462529 4.685433
O -5.393112 4.577542 -6.923609
O -5.347129 2.556825 -7.866061
H -4.140794 -6.522336 0.753258
H -2.463586 -4.975153 0.409138
H 0.243073 -3.091567 4.050914
H -4.157140 -0.286308 -2.968124
H 3.877382 -1.007928 6.719507
H -4.457540 -2.101502 -1.358021
H 2.582706 -0.127863 5.031773
H -2.870184 3.555268 -3.003108
H -6.649088 -3.558676 1.778693
H 4.140794 6.522336 -0.753258
H -1.891315 -3.661448 3.010618
H 2.463586 4.975153 -0.409138
H 7.068507 -3.289254 8.526689
H -4.980036 -2.018568 1.415035
H 4.157140 0.286308 2.968124
H 5.822533 -3.841402 9.301441
H 4.457540 2.101502 1.358021
H 6.335832 -2.386204 9.577996
H 2.870184 -3.555268 3.003108
H -8.509523 -7.294918 2.919944