112
Fe1 H27 C59 N5 F20
F -2.628687 -0.008604 4.836968
C -2.238288 -4.342129 -0.513772
C -1.904183 -5.397624 0.327701
C -2.593771 -6.600916 0.237755
C -3.261907 -4.488532 -1.441374
F -4.723630 0.519841 6.467392
F -6.686486 2.167919 5.664280
C -3.617464 -6.748713 -0.690177
C -3.951495 -5.691824 -1.529577
Fe -0.045942 0.070872 -0.101102
H -1.933308 3.629159 3.054501
H 0.016940 4.713934 2.023680
H 3.482424 3.361451 -1.754448
H 4.011070 1.299262 -2.980436
H 1.830753 -3.512513 -3.211612
H -2.880910 1.357823 -0.560535
H -1.632458 0.853081 -5.008710
H -0.276154 0.171262 -3.233547
F -0.910949 -5.295839 1.189325
F -2.262188 -7.625736 1.000337
H -3.871005 -3.101190 1.151429
H -4.235253 -1.128237 2.573972
H 2.122794 1.322965 1.463447
H 0.253257 -2.325952 1.510485
H -4.470667 1.785877 -2.221234
H 3.732627 -0.251215 0.841270
H 0.963177 1.058045 3.508339
H 2.540749 1.143098 3.796440
H 2.475816 -2.639673 0.798330
H 2.280041 -3.356350 2.221033
H 4.127342 0.303722 2.294706
H -0.184180 -1.047367 3.465066
H -3.836955 1.565575 -4.485200
H 4.266002 -2.068004 2.220737
H 3.838721 -0.813123 4.185641
C -1.462199 1.929491 1.845138
C -1.360956 3.249905 2.398233
C -0.317500 3.848066 1.824557
C 0.203668 2.934791 0.847977
C 1.300732 3.174613 0.034789
C 1.868740 2.283647 -0.864079
C 3.012274 2.538806 -1.693603
C 3.301690 1.423355 -2.362384
C 2.329481 0.447336 -1.959858
C 2.290274 -0.857741 -2.427212
C 1.358087 -1.803085 -2.028196
C 1.242244 -3.124894 -2.575426
F -4.285785 -7.883684 -0.767871
F -4.917155 -5.841016 -2.418108
C -1.541889 -2.991040 -0.394277
C -0.400725 -2.760978 -1.147978
C -2.117681 -2.070793 0.468053
C 0.175069 -3.720265 -2.043591
C -2.519349 -0.274918 1.632893
C -2.435151 0.998090 2.173994
C 2.009212 4.518730 0.161771
C 3.034761 4.623304 1.092404
C 3.725165 5.822413 1.235586
C 3.388908 6.915554 0.445882
C 2.362322 6.810981 -0.484931
C 1.671918 5.611872 -0.628113
C 3.414875 -1.310892 -3.351299
C 4.408830 -2.153058 -2.868005
C 5.458346 -2.535099 -3.694824
C 5.513908 -2.074976 -5.004939
C 4.519953 -1.232811 -5.488233
C 3.470510 -0.849375 -4.661083
C -2.643727 1.193294 -1.466795
C -1.937600 0.910248 -4.110763
C -3.328514 -2.323164 1.194123
C -3.534621 -1.241177 1.942989
C -1.121405 0.550515 -3.023915
C -3.527730 1.389892 3.162920
C -5.619964 2.496976 3.602108
C -4.545996 2.243211 2.756392
C -3.596813 1.495860 -2.456172
C -3.220291 1.356428 -3.792784
C 1.054055 -0.435264 1.270417
C 2.105353 0.427816 1.908967
C 0.979423 -1.782170 1.931072
C 3.456096 -0.221934 1.791892
C 1.826961 0.597922 3.375943
C 2.299558 -2.480721 1.760975
C 0.664931 -1.549320 3.381633
C 3.381985 -1.617641 2.343914
C 1.786571 -0.768505 4.003240
C 3.131976 -1.401523 3.810588
N -0.489330 1.745442 0.889620
N 1.438047 0.992513 -1.065012
N 0.317400 -1.586966 -1.153876
N -1.629620 -0.813123 0.730619
N -1.414100 0.685764 -1.710306
F 3.374719 3.599878 1.848040
F 4.683044 5.942324 2.131801
F 3.995044 8.071440 0.623878
F 2.017618 7.862293 -1.200184
F 0.721671 5.518453 -1.534414
F 4.354902 -2.660587 -1.667757
F 6.377667 -3.395390 -3.291375
F 6.500645 -2.427737 -5.801138
F 4.545127 -0.797785 -6.729134
F 2.512432 -0.074137 -5.120236
F -3.593044 -3.494387 -2.242232
F -6.570560 3.334959 3.219537
F -4.555291 2.771656 1.565608
H 0.559661 -2.417977 3.847559
H 1.611205 -0.670903 4.983476
H 3.171085 -2.267391 4.288277
C -3.582468 0.788943 4.415015
C -4.656510 1.041314 5.260401
C -5.674701 1.896028 4.854202
H -0.139284 -4.598683 -2.221157