113
Fe1 H50 C58 N4
C 0.762405 -1.163029 4.671476
C -0.205982 -1.462783 5.618924
C 0.124512 -1.581409 6.953921
C 1.417143 -1.405384 7.389747
C 2.383365 -1.155376 6.444378
C 2.062611 -1.038026 5.103691
C 1.740195 -1.452579 8.862755
H 5.345962 -7.891548 -1.523939
H 4.578248 -8.116045 -2.909734
Fe -0.223454 -0.237874 -0.040109
H 2.354114 -4.443740 1.275784
H 1.760419 -3.404168 3.429924
H -2.470356 2.427640 3.646273
H -4.362583 2.436569 -1.341446
H -3.356029 1.794968 -3.501096
H 0.948060 -0.965319 -4.925921
H 2.148928 -2.777874 -3.750707
H 2.750713 -0.868378 4.470840
H -4.830065 1.337046 2.533568
H -3.359296 4.370301 0.331245
H -0.788110 2.839642 -4.417316
H 4.217807 -3.055943 -1.615400
H -6.482883 2.736323 3.360860
H -1.180660 3.532265 -6.583805
H -2.034149 -0.240808 -7.659926
H 2.438466 -7.320102 -1.914708
H -1.583465 -0.965319 -5.500543
H 5.586602 -4.853191 -2.139660
H -2.235809 3.099854 -8.757024
H -1.128728 2.084517 -9.309971
H -2.647406 1.604911 -9.149928
H 5.854307 -7.151730 -2.848134
H 1.054547 -5.524130 -1.380450
H -0.142378 2.624075 0.065110
H 1.127105 2.588359 2.097268
H 1.393737 3.972329 1.332606
H 3.438678 3.039903 2.062299
H 3.509057 4.311625 0.055439
H 4.597415 3.134294 -0.006888
H 3.364797 3.212102 -2.050033
H 2.749160 0.914839 -2.154437
H 4.136954 1.061527 -1.361250
H 2.642748 -0.379842 -0.130707
H 1.318920 4.045036 -1.209344
H 1.042484 2.695505 -2.030565
H 4.154730 0.950555 1.184856
H 2.777736 0.749018 1.983380
C 1.377637 -2.772772 0.358049
C 1.880998 -3.628665 1.396281
C 1.557545 -3.062321 2.567650
C 0.848320 -1.846723 2.281644
C 0.393658 -0.953839 3.235167
C -0.449066 0.111244 2.933266
C -1.006505 1.014332 3.898537
C -1.922841 1.755426 3.259784
C -1.923265 1.347250 1.889447
C -2.789891 1.828132 0.914838
C -2.662702 1.513072 -0.426820
C -3.543888 1.970994 -1.463947
C -2.998648 1.618942 -2.638998
C -1.776139 0.927595 -2.347827
C -0.904528 0.431406 -3.314610
C 0.093798 -0.494642 -3.019731
C 0.895429 -1.170683 -3.999267
C 1.555507 -2.147753 -3.359767
C 1.199517 -2.061015 -1.975880
C 1.643809 -2.941144 -0.992140
C -3.899074 2.717190 1.366616
C -4.856867 2.245237 2.254521
C -5.849882 3.076894 2.739831
C -5.003660 4.863938 1.429227
C -3.992297 4.029729 0.952274
C -1.125911 0.858715 -4.725051
C -1.027673 2.199317 -5.076509
C 3.846036 -3.929694 -1.656273
C -1.273454 2.611319 -6.367005
C 4.663996 -5.001155 -1.972848
C -5.936955 4.400914 2.335542
C -1.650745 1.714608 -7.357305
C -1.766233 0.393140 -7.003113
C 2.813462 -6.450178 -1.838938
C -1.504498 -0.041822 -5.711513
C 4.154788 -6.280530 -2.048586
C -1.941198 2.164877 -8.766434
C 5.064250 -7.465515 -2.360883
C 2.502981 -4.104444 -1.398057
C 1.982372 -5.377442 -1.517014
C 1.082465 0.955657 -0.028028
C 0.838610 2.434018 0.036670
H -5.050439 5.763200 1.126271
C 1.527434 2.992708 1.286821
C 2.998963 2.682750 1.238117
C 3.627197 3.329453 0.014591
C 2.960179 2.778416 -1.244607
C 3.169496 1.268166 -1.330722
C 2.529195 0.612534 -0.090605
C 1.470000 3.066690 -1.218581
C 3.189600 1.167398 1.184634
N 0.713364 -1.694678 0.909269
H -7.017718 5.293798 3.838633
N -0.978025 0.361251 1.684226
N -1.608293 0.805908 -0.983548
H -6.869646 6.221122 2.542520
N 0.325472 -1.028331 -1.767230
H -7.894995 4.992768 2.534393
H -0.771465 1.074283 4.817313
H -1.107247 -1.587787 5.343905
H -0.554385 -1.790599 7.584322
H 3.288517 -1.062261 6.718399
H 1.385113 -2.280410 9.249049
H 2.713285 -1.425792 8.985239
H 1.334454 -0.682147 9.311997
C -7.024697 5.306553 2.859187