125
H52 Os1 C64 N4 F4
H -6.030134 0.603308 -1.756629
H 0.039458 5.149463 -0.303184
H 0.924951 4.424763 -2.487426
H -2.030405 0.329284 4.735098
H -1.708711 2.659537 4.063648
H -2.808018 4.404857 1.963793
H -3.135004 6.448839 3.060994
H 0.805519 6.766636 3.672684
H 1.141870 4.715057 2.571840
H 3.193854 3.310570 -3.214416
H 0.260481 1.522000 -5.333575
H -2.595265 1.781959 0.181732
H 1.914405 1.701003 1.848612
H -2.732061 2.135080 -2.228320
H -4.144974 2.441297 -1.536193
H -4.838689 1.040546 0.601645
H 3.840272 0.098993 -1.124209
H 3.479850 0.987791 3.528901
H -2.343768 0.133927 -3.389096
H 3.462296 2.009253 -0.023116
H 4.163806 2.379148 1.370676
H -4.464396 1.132343 -3.449522
Os 0.000000 0.000000 0.000000
H -3.953795 -4.357173 5.159618
C -0.579301 3.034555 1.490463
C -0.067654 3.046874 0.197273
C 0.187744 4.253099 -0.581904
C 0.672714 3.854788 -1.770207
C 0.743790 2.415530 -1.772297
C 1.169669 1.606589 -2.827554
C 1.177728 0.215581 -2.841995
C -1.657797 0.627237 3.913995
C -1.486384 1.895057 3.546172
C -0.900906 1.908402 2.222624
C -0.798001 4.366022 2.161671
C -2.062267 4.881362 2.308752
C -2.259959 6.093747 2.955746
C -1.192114 6.755888 3.430388
C 0.069488 6.281610 3.318055
H -5.602090 -1.039068 -0.115953
C 0.263345 5.063066 2.665755
C 1.660234 2.295421 -4.075069
H -5.612600 -0.752520 -2.501791
C 2.752453 3.149531 -4.040067
C 3.207514 3.769582 -5.187010
C 2.559896 3.517045 -6.362637
C 1.484240 2.702971 -6.454828
C 1.021512 2.089079 -5.292688
C -1.923772 0.047222 -0.736503
C -2.981384 1.075850 -0.412179
C 2.580650 0.992698 1.612680
C -3.492739 1.725672 -1.744973
C -4.175058 0.364434 0.315213
C 3.100537 0.302840 2.922701
C 3.781922 1.637387 0.836919
C -4.135788 0.706283 -2.606596
C 4.824374 0.617998 0.583025
N 0.260240 1.973076 -0.564809
N -0.727105 0.600546 1.832621
H 3.953795 4.357173 -5.159618
F -1.386787 7.958007 4.041130
F 3.017799 4.111431 -7.502267
H -0.039458 -5.149463 0.303184
H -0.924951 -4.424763 2.487426
H 2.030405 -0.329284 -4.735098
H 1.708711 -2.659537 -4.063648
H 2.808018 -4.404857 -1.963793
H 3.135004 -6.448839 -3.060994
H 5.602090 1.039068 0.115953
H -0.805519 -6.766636 -3.672684
H -1.141870 -4.715057 -2.571840
C -5.283286 -0.026691 -1.914050
H -3.193854 -3.310570 3.214416
H 5.612600 0.752520 2.501791
H -0.260481 -1.522000 5.333575
H 2.595265 -1.781959 -0.181732
H -1.914405 -1.701003 -1.848612
H 2.732061 -2.135080 2.228320
H 4.144974 -2.441297 1.536193
H 4.838689 -1.040546 -0.601645
H -3.840272 -0.098993 1.124209
H -3.479850 -0.987791 -3.528901
H 2.343768 -0.133927 3.389096
H -3.462296 -2.009253 0.023116
H -4.163806 -2.379148 -1.370676
H 4.464396 -1.132343 3.449522
C 0.579301 -3.034555 -1.490463
C 0.067654 -3.046874 -0.197273
C -0.187744 -4.253099 0.581904
C -0.672714 -3.854788 1.770207
C -0.743790 -2.415530 1.772297
C -1.169669 -1.606589 2.827554
C -1.177728 -0.215581 2.841995
C 1.657797 -0.627237 -3.913995
C 1.486384 -1.895057 -3.546172
C 0.900906 -1.908402 -2.222624
C 0.798001 -4.366022 -2.161671
C 2.062267 -4.881362 -2.308752
C 2.259959 -6.093747 -2.955746
C 1.192114 -6.755888 -3.430388
C 5.283286 0.026691 1.914050
C -0.069488 -6.281610 -3.318055
C -0.263345 -5.063066 -2.665755
C -1.660234 -2.295421 4.075069
C -2.752453 -3.149531 4.040067
C -3.207514 -3.769582 5.187010
C -2.559896 -3.517045 6.362637
C -1.484240 -2.702971 6.454828
C -1.021512 -2.089079 5.292688
C 1.923772 -0.047222 0.736503
C 2.981384 -1.075850 0.412179
C -2.580650 -0.992698 -1.612680
C 3.492739 -1.725672 1.744973
C 4.175058 -0.364434 -0.315213
C -3.100537 -0.302840 -2.922701
C -3.781922 -1.637387 -0.836919
C 4.135788 -0.706283 2.606596
C -4.824374 -0.617998 -0.583025
N -0.260240 -1.973076 0.564809
N 0.727105 -0.600546 -1.832621
F 1.386787 -7.958007 -4.041130
F -3.017799 -4.111431 7.502267
H -1.055455 -2.554672 7.289387
H 6.030134 -0.603308 1.756629
H 1.055455 2.554672 -7.289387