119
H54 Ru1 C59 N4 O1
H -4.468129 -3.345637 5.291686
H -2.810374 -2.664049 3.838115
H -2.128648 -0.298437 4.732962
H 0.090123 0.707469 5.134970
H 2.923942 -0.215189 4.626521
H 4.049422 0.417838 6.560342
H 3.100983 4.245482 5.850060
H 2.004244 3.633267 3.905833
H 5.184099 2.247545 7.817481
H 3.779260 2.668985 8.457171
H 4.641477 3.742529 7.641929
H 4.043674 2.462601 2.073401
H 4.456388 2.568394 -0.353376
H 4.933481 0.625956 -2.268565
H 4.277047 4.465740 -4.815307
H 2.504329 3.546551 -3.630460
H -6.197161 -1.427479 -7.245718
H -1.142272 2.995037 -1.923818
H -2.193027 3.707843 -0.951914
H -2.414904 2.185110 -1.392563
H -5.325748 0.086582 2.269671
H -0.421459 2.939539 0.195964
H -7.001897 -0.652238 3.697566
H -7.864113 -2.466337 5.166039
H -6.975455 -2.001539 6.415444
H -6.829453 -3.486117 5.837594
Ru -0.119109 0.227583 0.010308
C 0.652288 -1.460258 -0.040934
C 0.210833 -2.579067 -0.955250
C 1.358156 -2.917260 -1.925627
C 2.576756 -3.356043 -1.134461
C 3.007864 -2.209657 -0.210843
C 1.862840 -1.869730 0.757801
C 1.517954 -3.106301 1.596972
C 1.110987 -4.252686 0.674924
C -0.127156 -3.808700 -0.103760
C 2.234168 -4.583941 -0.306284
C 1.274234 0.957211 -2.625208
C 1.107538 0.851418 -4.048013
C -0.112211 0.331122 -4.271427
C -0.726109 0.100630 -2.996178
C -2.006788 -0.425389 -2.797735
C -2.817272 -0.730282 -4.023736
C -3.303562 0.294701 -4.822157
C -4.077258 0.031084 -5.936989
C -4.379608 -1.259250 -6.296944
C -3.892169 -2.294639 -5.507398
C -3.121922 -2.025819 -4.380205
C -2.598844 -0.682068 -1.561979
C -3.917460 -1.214851 -1.364466
C -4.123243 -1.320992 -0.041012
C -2.939132 -0.832434 0.621483
C -2.766688 -0.751961 2.008919
C -3.881822 -1.209128 2.896962
C 6.831507 3.723452 -5.009522
C -4.652069 -2.648440 4.670765
C -3.659945 -2.238273 3.809139
C -1.618216 -0.255252 2.652482
C -1.483710 -0.072975 4.073025
C -0.276607 0.473336 4.290957
C 0.356835 0.641045 3.016240
C 1.611073 1.235396 2.822215
C 2.344532 1.644002 4.058485
C 2.958430 0.702266 4.868318
C 3.625211 1.080348 6.028718
C 3.678094 2.393228 6.416826
C 3.068794 3.328027 5.604277
C 2.412360 2.965554 4.443335
C 4.382812 2.799059 7.696039
C 2.200829 1.485658 1.589194
C 3.470012 2.133080 1.391409
C -5.256770 -1.547147 -7.493197
C 3.695338 2.190313 0.070490
C 2.572157 1.567692 -0.589889
C 2.408911 1.463633 -1.977251
C 3.528643 1.992600 -2.808694
C 4.789778 1.411603 -2.783920
C 5.843982 1.959648 -3.496631
C 5.681885 3.111237 -4.254405
C -5.145257 -0.621020 2.877675
C 4.418450 3.683562 -4.293464
C 3.358499 3.135517 -3.585178
C -6.143129 -1.056334 3.737378
C -5.912055 -2.076115 4.657637
C -1.744674 2.863229 -1.163302
N 0.145305 0.482181 -2.002072
C -6.990401 -2.549584 5.601789
N -2.017135 -0.464584 -0.331433
N -0.485838 0.191162 2.025243
N 1.674302 1.149894 0.362596
O -0.991672 2.424099 -0.028865
H -0.596202 -2.294639 -1.473306
H 1.077648 -3.643940 -2.538063
H 1.581183 -2.122941 -2.471197
H 3.322860 -3.576301 -1.763301
H 3.236639 -1.411870 -0.750986
H 3.811450 -2.476742 0.302306
H 2.139899 -1.118770 1.359323
H 2.304295 -3.373386 2.136136
H 0.775298 -2.894714 2.215203
H 0.892559 -5.062614 1.219780
H -0.857166 -3.586707 0.527713
H -0.436404 -4.545786 -0.688521
H 3.035455 -4.883979 0.192830
H 1.949062 -5.319293 -0.903991
H 1.740980 1.101160 -4.709794
H -0.497334 0.147284 -5.119842
H -3.101229 1.196547 -4.599534
H -4.404900 0.750827 -6.462832
H 6.694702 1.539943 -3.464767
H -4.087604 -3.194751 -5.738976
H -2.801177 -2.745562 -3.848911
H -5.029145 -0.929729 -8.219433
H 6.899335 3.308949 -5.895594
H 7.663834 3.576034 -4.513537
H -5.111918 -2.469805 -7.790617
H 6.678608 4.685999 -5.112490
H -4.534807 -1.450025 -2.047310
H -4.904986 -1.656409 0.380185