81
Sn1 H28 Rh1 C44 N4 Cl3
Sn -1.362732 -0.963400 0.346836
H 1.500606 3.997987 4.017286
H 1.036176 5.235243 5.981303
H 1.548370 1.150386 4.868171
H -2.109274 2.166263 4.381252
H -1.506253 5.268956 -2.321488
H -3.017537 6.470252 -3.584097
H 0.366857 0.182832 -5.238963
H -4.787023 5.436395 -4.626249
H -4.981437 3.102352 -4.519613
C 1.204904 -1.353344 -2.999371
H -3.462421 1.874086 -3.291905
C 3.456008 -2.713090 2.410136
C 4.837779 -2.605209 2.275887
C 5.660930 -3.543546 2.972957
C 5.129139 -4.507730 3.666856
C 3.767003 -4.578526 3.795577
C 2.940351 -3.697501 3.148860
H -0.733295 -2.278196 -4.576271
H -0.529984 -3.598610 -6.562775
C -0.019967 2.175253 2.763301
C -0.687703 2.573063 1.618767
C -1.711096 3.599053 1.533194
Rh 0.602777 0.424440 -0.115240
C -2.110260 3.682211 0.237249
C -1.324223 2.758483 -0.513790
C 1.294036 -2.178181 -4.246658
C -1.372189 2.603404 -1.889925
C 0.255026 -3.325537 -6.083450
C -0.613320 1.679676 -2.606103
C 1.371423 -3.653674 -6.595851
C -0.605330 1.586404 -4.039170
C 2.566449 -3.294072 -5.952372
C 2.490515 -2.558011 -4.758412
N 1.689441 -1.221864 -0.586952
C 1.592950 0.718864 4.012348
C 0.888784 1.145891 2.846169
C -0.278262 2.967501 4.032144
C 0.671014 3.878868 4.485741
C 0.400198 4.595825 5.650725
C 0.157278 0.494112 -4.355565
C 0.554061 -0.125078 -3.125283
C -1.460437 2.798938 4.701542
C -2.334435 3.437232 -2.678438
C -2.221029 4.825072 -2.783113
C -3.128558 5.519553 -3.507338
C -4.148732 4.923962 -4.124736
C -4.261038 3.551855 -4.069413
C -3.370232 2.828156 -3.343078
N -0.477351 2.062877 0.346733
C 0.125829 -2.535536 -4.917740
N 1.221886 0.294084 1.805617
N 0.154841 0.688522 -2.045598
Cl -0.976168 -3.167088 0.928364
Cl -2.810886 -1.221864 -1.444606
Cl -2.731920 -0.239701 2.048524
H -0.930812 4.902611 7.124514
H -2.545074 3.397900 6.358523
C -0.756459 4.403663 6.323739
C -1.722837 3.503533 5.876601
H 2.440310 -3.816619 -2.325558
H 3.254100 -3.937985 0.014152
H 2.890359 -0.843158 4.315327
H 5.222322 -1.898366 1.752831
H 6.614279 -3.437913 2.929401
H 5.707155 -5.160632 4.067910
H 3.414353 -5.285369 4.339836
H 1.988423 -3.751441 3.256484
H 1.422879 -4.175098 -7.401180
H 3.414807 -3.558155 -6.315256
H 3.294088 -2.301795 -4.300072
C 1.678380 -1.857911 -1.806410
C 2.335387 -3.152479 -1.642335
H -2.045755 4.114857 2.269567
C 2.768925 -3.209790 -0.377943
H -2.795708 4.258698 -0.106107
C 2.360885 -2.027598 0.311650
H -1.035239 2.183119 -4.657455
C 2.598990 -1.735421 1.649552
C 2.084781 -0.645377 2.323551
C 2.318712 -0.345334 3.724619