78
Mn1 H28 C44 N4 Cl1
Mn -0.009975 -0.017907 0.021534
H 2.114397 1.346888 4.487897
H -2.403620 -1.476799 -4.269757
H -1.191940 -3.514010 -3.541934
H 1.847753 -4.770373 0.594253
H 2.717868 -3.551498 2.566215
H -1.678652 1.414604 -5.153369
H -3.190227 1.945498 -6.851901
H -5.477838 1.850682 -6.457417
H -6.271076 1.260573 -4.335820
H -4.765898 0.801367 -2.620445
H 1.859347 -4.143130 -3.081148
H 2.007423 -6.247875 -4.067821
H 0.707772 -8.007533 -3.279620
H -0.751115 -7.659255 -1.508602
H -0.943605 -5.548835 -0.537147
H 1.452005 -2.185230 5.047671
H 4.458007 -0.322985 3.142157
C 1.362072 0.426636 2.716336
C 1.598746 1.442385 3.695302
C 0.962053 2.555569 3.292451
C 0.309978 2.246216 2.042115
C -1.885541 1.737123 -1.638242
C -2.126096 0.750604 -2.586868
C -1.595239 -0.535525 -2.537559
C -1.860724 -1.561018 -3.494786
C -1.199423 -2.672984 -3.099559
C -0.509105 -2.341709 -1.883879
C 0.266899 -3.244191 -1.159321
C 0.892023 -2.938492 0.048338
C 1.684171 -3.859243 0.809283
C 2.154838 -3.196692 1.888346
C 1.641970 -1.850885 1.818787
C 1.886497 -0.865583 2.769654
C -3.072069 1.064828 -3.709708
C -2.612672 1.396104 -4.978354
C -3.512005 1.700585 -5.991573
C -4.865594 1.649433 -5.759700
C -5.336168 1.304760 -4.498979
C -4.439689 1.024637 -3.483544
C 0.422346 -4.621665 -1.722551
C 1.311434 -4.851852 -2.764997
C 1.407490 -6.106316 -3.344652
C 0.639747 -7.148860 -2.879938
C -0.225252 -6.939376 -1.837076
C -0.339541 -5.682478 -1.257032
C 2.803659 -1.189551 3.914791
C 4.118682 -0.787636 3.898113
N 0.555492 0.930857 1.715967
N 0.868496 -1.710823 0.682505
N -0.758533 -1.022695 -1.546863
N -1.098719 1.605587 -0.514746
Cl 1.940945 0.731969 -1.209135
H 0.943656 3.389994 3.746135
H -2.087616 4.661118 -0.419534
H -2.979952 3.424997 -2.366591
H 0.665385 5.386795 0.388767
H 0.479197 7.610616 1.151006
H -0.853592 8.063697 3.009070
H -1.941198 6.405552 4.080090
H -1.803365 4.175032 3.355478
H 2.867179 -2.590640 6.857416
H 5.058038 -1.875645 6.808603
H 5.864859 -0.774263 4.943955
C -0.436788 3.152352 1.295276
C -1.100583 2.830820 0.104547
C -1.919024 3.751572 -0.636561
C -2.401411 3.076841 -1.697959
C -0.548646 4.560274 1.792545
C 0.125496 5.584549 1.145489
C 0.017937 6.908434 1.595548
C -0.769201 7.171506 2.695678
C -1.410781 6.194730 3.320500
C -1.331489 4.859883 2.895296
C 2.350106 -1.877679 5.020607
C 3.195892 -2.126136 6.097320
C 4.486110 -1.709605 6.069100
C 4.957205 -1.053144 4.973555