87
Zn1 H34 C46 S1 N4 O1
Zn 0.030018 -0.101631 0.046597
H -3.566391 -2.583467 2.821791
H -4.617845 -0.386886 2.307497
H -2.411207 -4.862715 0.880602
H -3.103913 -6.871417 1.846208
H -5.150445 1.168757 -0.507718
H -2.504632 1.015233 -1.970770
H -3.099075 0.709257 -3.424236
H -3.356957 -0.316029 -2.221729
H 0.680291 0.568616 -3.716179
H -0.612243 1.181640 -4.432570
H -0.293070 1.549884 -2.908337
H -2.936761 4.153359 0.082806
H -0.827155 4.914540 -0.964280
C 0.401057 -2.851867 1.367322
C -0.912152 -2.887295 1.857025
C -1.833315 -1.829802 1.786368
C -3.168356 -1.862009 2.349340
C -3.739355 -0.661727 2.071751
C -2.762245 0.115558 1.352259
H -3.893022 3.132368 2.785305
C -2.947328 1.442525 0.934906
H -5.986895 4.142623 2.981512
H -7.662934 3.683123 1.427792
H -7.240057 2.203706 -0.326603
H 1.007239 3.857046 -3.655732
H 1.759632 5.871116 -4.603818
H 2.811189 7.462188 -3.264379
H 3.204751 7.032749 -1.022149
H 2.515899 5.001501 -0.083819
C -1.380023 -4.168098 2.491525
C -2.160900 -5.066699 1.774013
C -2.579980 -6.259466 2.350232
C -2.235769 -6.559000 3.656535
C -1.039719 -4.482662 3.802328
C -4.309470 2.057696 1.110175
C -5.313854 1.781782 0.199559
C -2.712812 0.309879 -2.617076
C -0.251093 0.843457 -3.587048
S -1.220368 -0.565211 -3.043998
C -1.972398 2.248797 0.318204
N 0.999016 -1.789864 0.730430
C -2.153763 3.631591 -0.051117
N -1.607306 -0.618998 1.190317
C -1.005431 4.045999 -0.622936
C -0.095857 2.927310 -0.618715
N -0.705095 1.837287 -0.036940
O -0.594073 -1.026214 -1.755369
C 1.205051 2.944488 -1.155164
H 4.894068 0.450520 -1.631634
H 3.300415 -4.027456 0.834146
H 1.185618 -4.796152 1.857824
C -4.570428 2.939120 2.149382
C -5.817177 3.541408 2.266261
C -6.811809 3.269788 1.347495
C -6.560809 2.391585 0.310472
H -2.525030 -7.372787 4.051450
H -1.240244 -5.868677 5.280843
H 4.555484 -2.180868 -2.449376
H -0.505343 -3.880373 4.307562
H 6.667944 -3.132076 -2.683012
H 7.991429 -3.534675 -0.801848
C 1.675639 4.227437 -1.772711
H 7.218862 -2.898031 1.311749
C 1.457990 4.494763 -3.114986
C 1.897411 5.699340 -3.679333
C 2.532091 6.637665 -2.885197
C 2.762562 6.386443 -1.559351
H 5.091105 -1.968296 1.550130
C 2.343893 5.178645 -1.000996
H 3.852123 2.654617 -2.102714
C 2.102282 1.865522 -1.139412
C 3.443704 1.918129 -1.664184
C 4.009270 0.713552 -1.409695
C 3.021629 -0.095941 -0.738930
C 3.233919 -1.397142 -0.251905
C 2.283237 -2.176574 0.434203
C 2.495643 -3.527160 0.906338
C 1.346474 -3.944789 1.467931
C 4.595202 -1.986547 -0.424031
C 5.089054 -2.333319 -1.677488
C -1.472516 -5.670061 4.381741
C 6.348251 -2.900179 -1.818550
C 7.136992 -3.129928 -0.707738
C 6.672712 -2.764905 0.546050
C 5.406164 -2.205561 0.685167
N 1.857736 0.629918 -0.597813