93
Zn1 H35 C51 N5 O1
H -3.452816 -3.788030 -0.566124
H -1.949372 -4.081920 -2.514514
C -2.849042 -0.077249 1.405235
H 1.736543 -0.973337 -4.895576
C -3.166347 -1.313807 0.811214
C -2.494510 -1.883843 -0.282651
H -1.863096 5.153998 1.734084
H -5.496286 -2.188823 -0.204314
H -2.149085 6.896269 3.271741
H -1.947774 -2.789912 -4.794673
H -0.434744 4.718153 6.122385
H -1.382185 6.681119 5.434381
H -1.693738 -4.249382 -6.595508
H 0.368904 -5.251937 -7.022887
H -0.102420 2.976992 4.600502
H 2.171120 -4.836054 -5.596774
H 1.939452 -3.372148 -3.795437
C -4.278192 -2.102320 1.426428
C -4.185525 -2.521529 2.756503
C -5.167158 -3.326678 3.320182
C -1.770109 1.763724 1.955533
C -6.278204 -3.683782 2.588601
C -2.988362 1.732671 2.732560
C -6.398832 -3.243501 1.286478
C -3.648535 0.603689 2.399355
C -5.404737 -2.469405 0.699412
H 2.971572 1.061714 -4.221994
C 4.702210 2.701955 -1.955154
C 5.701577 3.580299 -2.373145
C 5.385231 4.712608 -3.077132
C 1.739898 2.554455 -0.462076
C 2.182623 3.728907 0.246252
C 1.321777 3.916332 1.283875
C -2.796477 -3.171415 -0.870035
C 0.355643 2.855000 1.223918
C -1.973338 -3.333332 -1.929839
C -0.783843 2.759624 2.037430
C -1.134381 -2.156662 -2.009246
C -0.154985 -1.919331 -2.990704
C 0.540817 -2.193259 1.590239
H 3.847116 5.765068 -3.897832
C 0.713370 -0.805875 -3.006338
C 1.331683 -3.008389 2.375723
H 2.156740 4.282308 -3.222048
C 1.629975 -0.489805 -4.084796
C 2.629023 -2.598052 2.694062
C 3.050658 -1.359276 2.229280
C 2.202435 -0.611797 1.425380
C 3.540995 -3.537392 3.444383
N 0.970281 -1.018807 1.090607
O 3.224489 -4.687445 3.613484
C -0.027008 -2.904141 -4.113901
C -0.977006 3.861990 3.033951
C -1.103705 -3.193595 -4.957032
C -1.567519 5.049750 2.631552
C -0.952401 -4.066394 -6.030037
C -1.727290 6.090011 3.543974
C 0.266650 -4.668592 -6.280956
C -0.717538 4.817965 5.220600
C 1.335198 -4.412408 -5.438376
C -1.286323 5.960256 4.825042
C 1.196996 -3.539610 -4.363726
C -0.538595 3.769941 4.314594
H 5.347365 -3.700418 4.376209
H 5.364940 -2.673465 3.150554
H 4.685913 -2.252037 4.537877
C 2.300214 0.618106 -3.716125
C 1.816588 1.008481 -2.420407
C 2.271456 2.114174 -1.684487
N -1.723775 0.663576 1.133057
H 4.930363 1.918987 -1.466552
N 0.655373 2.009926 0.171495
N -1.459514 -1.301607 -0.979157
N 0.833997 0.130138 -2.013214
C 3.366046 2.972556 -2.254871
Zn -0.250672 0.201780 -0.245585
H -4.481741 0.312017 2.752189
C 4.066961 4.985427 -3.401589
C 3.060245 4.102647 -2.991376
H -3.441632 -2.250928 3.282646
H -5.071295 -3.633876 4.214580
H -6.954994 -4.226093 2.976348
H -7.172282 -3.473068 0.784905
H 6.609555 3.392874 -2.168373
H 6.072725 5.311479 -3.342925
H -3.272275 2.385884 3.361347
C 4.845684 -2.993972 3.917693
H -0.345272 -2.473841 1.392713
H 0.998401 -3.837936 2.696799
H 2.933227 4.269000 0.030562
H 3.911025 -1.027679 2.460396
H 1.353093 4.616123 1.925353
H 2.508236 0.225513 1.097580