109
Ni1 H44 C52 N4 O8
Ni -0.034746 -0.050805 -0.020764
C 0.784374 -4.338508 5.317658
C -0.642653 5.608198 -3.404781
C 4.534311 3.978520 2.503895
H -3.222730 -1.880024 3.378439
H 4.260335 2.312295 -1.145103
H -1.778895 0.933998 -4.602782
H -3.434515 -0.616585 -3.633670
H -4.464305 -2.094077 1.191744
H 1.797916 -1.109953 4.539433
H 2.710608 2.998833 -3.005409
H -3.841276 -5.636404 -1.765653
C 7.367857 1.019359 1.554716
H -2.402484 -5.500662 -2.455307
H -3.726980 -5.234401 -3.311589
H 3.811553 -0.506948 3.176050
H -5.725489 -4.558304 -2.626266
H 6.652159 -2.297689 -0.682576
H 5.411705 -3.297476 -0.510213
H 6.295823 -2.890252 0.762072
H -3.192475 1.941617 5.560988
H -2.335251 2.847429 4.560368
H -1.693173 2.352321 5.938274
H 1.186093 3.993399 -7.554998
H -6.989475 1.093233 -1.522542
H -6.288568 1.894629 -0.326140
H -7.159239 0.589424 -0.012787
H 1.935744 1.811096 -7.201005
H -7.577766 -1.076017 -1.543153
H -7.680297 -3.271372 -2.365749
H 2.211400 -0.355544 -6.761827
H 2.803053 -1.143888 -5.499929
H 7.558128 -0.869795 0.878662
H 3.382940 0.297058 -5.889186
H 0.034723 5.079329 -5.800713
H 1.404601 -3.890039 5.929307
H 1.290304 -4.900268 4.695240
N 1.373001 0.978114 -0.843895
H 0.164147 -4.897658 5.832866
N -1.088914 0.083788 -1.634033
H 0.231380 6.024298 -3.562676
N -1.506264 -0.890678 0.882110
H -0.992266 5.904219 -2.538746
H 8.247269 1.142831 1.741404
N 1.082217 -0.352412 1.524023
H -1.262880 5.872894 -4.115286
H 4.959561 3.742799 3.354845
C -1.494666 -1.456093 7.318522
H 3.735915 4.520702 2.675758
H 5.164623 4.491987 1.954768
O 5.056545 -1.456615 0.158205
O 4.165872 2.796004 1.818862
O -3.269961 -3.759780 -2.065005
H 6.798392 2.800441 2.229950
O 1.599746 0.363624 -5.012132
O -1.809486 0.931127 4.553457
O -5.381423 0.197602 -0.791781
O 0.043967 -3.358299 4.582110
O -0.500118 4.192051 -3.399582
H -1.679726 -1.532839 8.220682
H -0.659461 -3.289645 7.098870
H -2.288187 0.469345 7.111697
C 2.670436 1.148574 -0.397448
C 4.678190 0.689403 0.989044
C 2.448062 -0.166289 1.615895
C 1.314845 1.695716 -2.027844
C 3.220236 0.519726 0.703455
C -2.276590 -0.568032 -1.909559
C -4.375613 -1.811631 -1.416479
C -1.544083 -0.168639 5.302971
C 0.516449 2.290628 -4.275574
C -0.796449 0.787554 -2.786047
C -0.605002 -1.029291 3.168643
C -0.918309 -1.219590 4.613830
C -1.629301 -1.122744 2.242258
C 0.700164 -0.766162 2.785839
C 5.140251 1.874007 1.560540
C -2.931106 -1.645348 2.544433
C -2.705202 -1.302340 0.345407
C 3.386134 2.036374 -1.263609
C -1.792006 0.550529 -3.786351
C -5.554380 -1.069230 -1.286407
C -2.692259 -0.298637 -3.257385
C 0.308194 1.603046 -2.961110
C -4.469403 -3.106133 -1.934978
C -3.061538 -1.242039 -0.991186
C -3.579571 -1.776651 1.375342
C 1.833717 -0.874233 3.647789
C 2.548071 2.389563 -2.254674
C -3.313831 -5.141209 -2.427858
C 5.589033 -0.335966 0.715629
C -0.876961 -2.503129 6.676110
C 2.917686 -0.546104 2.920395
C -0.581638 -2.379656 5.313333
C 1.206767 1.638548 -5.302301
C 0.105822 3.613323 -4.475039
C -1.847305 -0.285585 6.667905
C -5.694898 -3.659801 -2.285397
C 6.492144 2.054125 1.831004
C 5.922846 -2.574132 -0.087380
C -2.296592 2.111032 5.204837
C 6.945969 -0.172554 1.007066
C 1.004899 3.572862 -6.697593
C -6.545567 1.007090 -0.652171
C 1.447798 2.274966 -6.519697
C -6.787439 -1.606453 -1.639991
C -6.836183 -2.896517 -2.137714
C 2.576645 -0.258698 -5.857527
C 0.340466 4.253396 -5.698841