92
H36 Os1 C48 N5 Cl1 O1
H -4.931188 -1.516378 -0.043119
H 1.516379 -4.931188 -0.043119
H -3.661623 -3.644718 -0.020027
H 3.661623 3.644718 -0.020027
H 3.644718 -3.661623 -0.020027
H -3.644718 3.661623 -0.020027
H -5.147572 0.671129 1.935164
H -0.671128 -5.147572 1.935164
C 1.196198 4.806092 0.003547
H -7.409461 1.205327 1.971727
H -1.205326 -7.409461 1.971727
C 1.013962 5.561407 1.151933
H -7.203220 2.346414 -1.887657
H 4.931189 1.516379 -0.043119
H -2.346414 -7.203220 -1.887657
C 1.324845 6.914314 1.170215
H -4.931188 1.856169 -1.909787
H -1.856169 -4.931188 -1.909787
C 1.809004 7.556535 0.037032
H -9.241963 2.763968 -0.643532
H 5.147573 -0.671128 1.935164
H -2.763967 -9.241963 -0.643532
C 2.004088 6.792260 -1.102502
H -9.534420 1.281399 -0.118171
H 7.409462 -1.205326 1.971727
H -1.281399 -9.534420 -0.118171
C 1.707067 5.434281 -1.118859
H -9.285916 2.466440 0.927740
H 7.203221 -2.346414 -1.887657
H -2.466439 -9.285916 0.927740
C 2.106363 9.033863 0.052138
H 4.931189 -1.856169 -1.909787
H 9.241964 -2.763967 -0.643532
H 9.534420 -1.281399 -0.118171
H 9.285917 -2.466439 0.927740
Os 0.000000 0.000000 -0.001754
C -3.032926 -0.525576 -0.013580
C 3.032926 0.525576 -0.013580
C 0.525576 -3.032926 -0.013580
C -0.525576 3.032926 -0.013580
C -3.984678 -1.604115 -0.029552
C 3.984678 1.604115 -0.029552
C 1.604115 -3.984678 -0.029552
C -1.604115 3.984678 -0.029552
C -3.292080 -2.769208 -0.021470
C 3.292080 2.769208 -0.021470
C 2.769208 -3.292080 -0.021470
C -2.769208 3.292080 -0.021470
C -1.888119 -2.430263 -0.015697
C 1.888119 2.430263 -0.015697
C 2.430263 -1.888119 -0.015697
C -2.430263 1.888119 -0.015697
C -3.348542 0.840517 -0.012136
C 3.348542 -0.840517 -0.012136
C -0.840517 -3.348542 -0.012136
C 0.840517 3.348542 -0.012136
C -4.806091 1.196198 0.003547
C -1.196198 -4.806091 0.003547
C -5.561407 1.013962 1.151933
C -1.013962 -5.561407 1.151933
C -6.914314 1.324845 1.170215
C -1.324845 -6.914314 1.170215
C -7.556535 1.809004 0.037032
C -1.809004 -7.556535 0.037032
C -6.792260 2.004088 -1.102502
C 4.806092 -1.196198 0.003547
C -2.004088 -6.792260 -1.102502
C -5.434281 1.707067 -1.118859
C 5.561407 -1.013962 1.151933
C -1.707067 -5.434281 -1.118859
C -9.033863 2.106363 0.052138
C 6.914314 -1.324845 1.170215
C -2.106363 -9.033863 0.052138
C 7.556535 -1.809004 0.037032
C 6.792260 -2.004088 -1.102502
C 5.434281 -1.707067 -1.118859
C 9.033863 -2.106363 0.052138
N -1.767249 -1.062817 -0.007903
N 1.767249 1.062817 -0.007903
N 1.062817 -1.767249 -0.007903
N -1.062817 1.767249 -0.007903
N 0.000000 0.000000 1.778325
Cl 0.000000 0.000000 -2.202296
O 0.000000 0.000000 3.014752
H -1.516378 4.931189 -0.043119
H 0.671129 5.147573 1.935164
H 1.205327 7.409462 1.971727
H 2.346414 7.203221 -1.887657
H 1.856169 4.931189 -1.909787
H 2.763968 9.241964 -0.643532
H 1.281399 9.534420 -0.118171
H 2.466440 9.285917 0.927740