153
Ni1 H76 C68 N4 O4
C 2.479979 -4.773485 8.301023
H 3.354824 -1.753459 3.405872
C 12.346205 2.699047 -3.521602
C 0.697999 1.497543 -2.517646
H 4.755328 -0.649550 1.688577
C 3.075099 -5.995592 9.062606
C 12.300397 3.420166 -4.853511
C -0.617460 1.691648 -2.911647
C 2.170217 -7.023594 9.376198
C 13.663353 3.513424 -5.519465
C -1.680604 1.158129 -2.205201
C 2.913647 -8.190398 9.996492
C -3.047690 1.315365 -2.622464
C -9.688252 -1.939974 0.784557
C 1.973095 -9.344189 10.134335
C -11.046703 -1.995278 1.444480
C -3.807266 0.720035 -1.683982
C 1.545059 -9.879877 8.787494
C -10.999206 -2.636152 2.822049
C -2.924536 0.213625 -0.679164
N -1.111954 -0.823052 1.380153
C -12.346205 -2.699047 3.521602
C 4.841498 0.546533 -0.705010
H -9.234685 -2.817245 0.864391
N 1.600065 -0.461950 1.016305
C -12.300397 -3.420166 4.853511
O -8.917600 -0.923900 1.443619
C -13.663353 -3.513424 5.519465
H -9.784748 -1.724180 -0.178047
O 2.018151 -5.259292 7.106383
C 7.584494 0.843655 -1.134621
C 6.915219 1.722011 -0.305552
C 5.543627 1.568028 -0.109126
H 11.403024 1.075715 -1.527760
H 11.665853 2.510363 -0.870134
C -0.910515 2.561329 -4.094513
H 1.190240 -1.116922 5.487876
H 10.370481 2.124320 -3.388641
C -1.214270 2.054919 -5.338259
H 1.762832 -2.607958 7.268349
H 10.642697 3.555715 -2.733887
C -5.534240 0.349174 1.502202
C -1.565710 2.943034 -6.402522
H 1.302881 -5.735339 4.795789
H 12.993139 3.158828 -2.929165
C -6.897572 0.208203 1.716433
C -1.612644 4.295269 -6.143492
H 0.722780 -4.311535 3.078495
H 12.673990 1.776231 -3.667199
H 3.822285 1.732855 -2.883217
C -1.289739 4.796257 -4.940524
C 0.945809 -3.946095 3.927952
H 3.176476 -4.087066 8.149970
H 11.945578 4.333222 -4.712509
H 1.787237 2.463734 -4.083600
H -11.403024 -1.075715 1.527760
C -0.945809 3.946095 -3.927952
H 1.742181 -4.367923 8.819083
H 11.677117 2.943034 -5.456287
H -11.665853 -2.510363 0.870134
H -3.354824 1.753459 -3.405872
C -2.479979 4.773485 -8.301023
H 3.480607 -5.670275 9.904597
H 14.299775 3.934167 -4.904915
H -10.370481 -2.124320 3.388641
H -4.755328 0.649550 -1.688577
C -3.075099 5.995592 -9.062606
H 3.803511 -6.380551 8.511808
H 13.592014 4.052365 -6.335036
H -10.642697 -3.555715 2.733887
C -2.170217 7.023594 -9.376198
H 1.488739 -6.685264 10.010851
H 13.976871 2.613380 -5.749203
H -12.993139 -3.158828 2.929165
H 9.784748 1.724180 0.178047
C -2.913647 8.190398 -9.996492
H 1.706511 -7.321801 8.554884
H -12.673990 -1.776231 3.667199
C -1.973095 9.344189 -10.134335
H 3.262834 -7.932313 10.886728
H -11.945578 -4.333222 4.712509
C -1.545059 9.879877 -8.787494
H 3.679606 -8.445229 9.425018
N 1.111954 0.823052 -1.380153
H -11.677117 -2.943034 5.456287
H 1.173344 -9.054657 10.639760
N -1.600065 0.461950 -1.016305
H -14.299775 -3.934167 4.904915
H 9.234685 2.817245 -0.864391
H 2.414272 -10.066392 10.648375
H -13.592014 -4.052365 6.335036
O 8.917600 0.923900 -1.443619
H 2.314773 -10.289777 8.339504
H -13.976871 -2.613380 5.749203
O -2.018151 5.259291 -7.106383
C 5.534240 -0.349174 -1.502202
H 0.842930 -10.552199 8.910978
Ni -0.000000 -0.000000 0.000000
C 6.897572 -0.208203 -1.716433
H 1.201504 -9.145745 8.238993
C -3.363085 -0.394718 0.482451
C -2.493872 -0.889200 1.434142
C -2.923973 -1.579956 2.614710
C -1.818777 -1.969252 3.272336
H -5.068845 1.070293 1.909700
C -0.697999 -1.497543 2.517646
H -7.359212 0.832812 2.262923
C 0.617460 -1.691648 2.911647
H 7.385495 2.425780 0.126356
C 1.680604 -1.158129 2.205201
H 5.083864 2.182877 0.450862
C 3.047690 -1.315365 2.622464
H -1.190240 1.116922 -5.487876
C 3.807266 -0.720035 1.683982
H -1.762832 2.607958 -7.268349
C 2.924536 -0.213625 0.679164
H -1.302881 5.735339 -4.795789
C -4.841498 -0.546533 0.705010
H -0.722780 4.311535 -3.078495
H -3.176476 4.087066 -8.149970
H -1.742181 4.367923 -8.819083
C 10.999206 2.636152 -2.822049
C -7.584494 -0.843655 1.134621
H -3.480607 5.670275 -9.904597
C -6.915219 -1.722011 0.305552
H -3.803511 6.380551 -8.511808
C -5.543627 -1.568028 0.109126
H -1.488739 6.685264 -10.010851
H -1.706511 7.321801 -8.554884
H 5.068845 -1.070293 -1.909700
H -3.262834 7.932313 -10.886728
H 7.359212 -0.832812 -2.262923
H -3.679606 8.445229 -9.425018
H -7.385495 -2.425780 -0.126356
H -1.173344 9.054656 -10.639760
H -5.083864 -2.182877 -0.450862
H -2.414272 10.066392 -10.648375
H -2.314773 10.289777 -8.339504
C 0.910515 -2.561329 4.094513
H -0.842930 10.552199 -8.910978
C 1.214270 -2.054919 5.338259
H -1.201504 9.145745 -8.238993
C 1.565710 -2.943034 6.402522
C 3.363085 0.394718 -0.482451
C 1.612644 -4.295269 6.143492
C 9.688252 1.939974 -0.784557
C 2.493872 0.889200 -1.434142
H -3.822285 -1.732855 2.883217
C 1.289739 -4.796257 4.940524
C 11.046703 1.995278 -1.444480
C 2.923973 1.579956 -2.614710
H -1.787237 -2.463734 4.083600
C 1.818777 1.969252 -3.272336