115
Ni1 H60 C48 N4 O2
H -3.310177 1.129859 4.882325
H -0.971284 -3.414712 2.646911
H 0.520285 -1.549875 6.661917
H 1.367020 1.579279 5.809443
H 0.430085 0.568083 6.623739
H 1.899962 0.116080 6.178210
H -0.472629 -4.429782 -5.006524
H 2.682737 -5.076792 0.749098
H 2.537014 -4.965729 -0.839816
H 3.942335 -5.371240 -0.191893
C -0.259239 -1.698390 3.484842
C -0.686337 -3.024697 3.464940
C -0.698718 -3.781480 4.625486
C -0.228546 -3.237785 5.800305
C 0.206450 -1.921809 5.845298
C 0.178936 -1.148238 4.685786
C -3.091069 -0.705275 3.828618
C -2.814853 0.296881 5.031775
C 1.111341 0.640404 5.922751
O 0.582943 0.136743 4.688699
C 3.138583 -4.822379 -0.079944
Ni -0.034883 0.850521 -0.653628
H -3.846447 2.640841 -0.063550
H 1.307392 4.029137 -3.174452
H 2.719181 1.927968 -6.450619
H 1.682904 3.026981 -5.921206
H 2.487197 -3.357888 -2.263659
H 3.242970 3.670118 -4.238959
H 1.795729 -3.543855 -4.548839
H 4.254504 2.543984 -4.756255
H 1.429257 -1.986381 -4.556956
H 3.068197 3.484150 -6.579606
H 0.116887 -3.827972 -2.817515
H -0.330106 -2.316989 -3.095341
H -1.731702 -3.746611 -4.292281
H 3.553142 -1.172775 -4.768584
H -0.854680 -2.911051 -5.338639
H 4.145767 0.227144 -5.272469
H 5.810150 -1.100455 -4.164029
H 5.612130 0.313670 -3.439898
H 4.956472 -1.004888 -2.813368
H 3.365074 -2.424179 -3.222877
H 3.037740 -3.485741 2.547901
H 2.834983 -0.851207 3.660047
H 3.960272 -3.089269 -0.868904
H -4.033184 4.926687 -0.813162
H -3.549565 5.815196 -2.052352
H 4.203708 -3.224870 0.706575
H -5.588500 4.751051 -2.579040
H -4.442745 4.207356 -3.553988
H -4.926363 3.318846 -2.313359
H -1.589935 6.352434 -3.140392
H -0.068700 5.881060 -3.310098
H 3.854930 -1.982507 4.151416
H -1.125270 5.917220 -5.426641
H 4.042757 -1.304502 2.713627
H -0.727831 4.410112 -5.067050
H -2.243207 4.898275 -4.903258
H -4.805938 2.360599 2.012249
H -5.630100 0.773422 0.456924
C 1.626318 2.084232 -2.764271
C 2.655232 1.767829 -3.722580
C 2.861127 0.429899 -3.674274
C 2.029335 -0.075053 -2.582823
C 2.075944 -1.348411 -2.020350
C 1.714782 -1.515006 -0.674894
C 2.367395 -2.424179 0.247612
C 1.854577 -2.169765 1.485542
C 0.800877 -1.189564 1.316579
C -0.236406 -0.906739 2.204531
C -2.947222 2.336062 -0.105882
C -2.118652 2.926249 -1.030205
C -2.385578 4.155698 -1.755209
C -1.253584 4.459186 -2.419420
C -0.301864 3.396333 -2.147497
C 0.927190 3.268480 -2.750506
C 2.631658 2.804854 -6.023257
C 2.460025 -2.558488 -2.846448
C 1.465594 -2.797404 -3.987925
C 0.068321 -3.122847 -3.509698
C -0.826524 -3.594222 -4.636044
H -2.339589 -6.444425 3.602861
H -2.600493 -4.950231 3.092152
H -1.243877 -5.704431 2.701161
C 2.495654 -2.682466 2.752318
C 3.297487 2.769985 -4.647294
C 3.917223 -0.302346 -4.467178
C 5.188666 -0.545136 -3.647473
C -3.697082 4.886652 -1.742693
C 3.533592 -3.344974 -0.013345
C -4.759188 4.231893 -2.627003
C -1.010915 5.586612 -3.381522
C -1.303416 5.165603 -4.824125
C 3.387433 -1.609281 3.375645
C -1.309567 -0.085384 1.892864
C -2.569778 1.336489 0.764057
C -2.576350 0.050217 2.615264
C -3.340216 0.918063 1.899612
C -4.741376 1.393312 2.210268
C -5.798029 0.653318 1.415843
N 1.292678 0.967525 -2.042404
N 0.822823 -0.718318 -0.000005
N -0.852550 2.460815 -1.304303
N -1.343800 0.707559 0.743010
C -1.918808 -5.581745 3.400706
O -1.290059 -5.067752 4.586351
H 1.791698 -2.943337 3.397630
H -0.202347 -3.769857 6.587036
H -4.917782 1.269334 3.176016
H -6.683177 1.009755 1.638166
H -5.765100 -0.301054 1.635328
H -4.058246 -0.900282 3.741388
H -2.600337 -1.556332 3.952327
H -3.109822 -0.112505 5.872061
H -1.855338 0.490597 5.081054