111
Fe1 H42 C58 N6 Cl4
H -7.520203 0.263300 1.826024
H -6.187600 3.990839 2.456471
H -1.507807 1.988891 -7.384413
H 3.444602 6.225621 1.963580
H 5.200875 5.808911 0.525130
C -5.543761 0.499399 1.421214
C -6.822522 0.878028 1.829733
C -7.038179 2.169502 2.237791
C -6.022771 3.109547 2.210006
C -1.228381 2.437153 -6.618996
C -0.987927 3.793908 -6.649799
Cl -8.625874 2.637566 2.786528
C 3.378492 5.541260 1.336985
Cl -1.221867 4.668454 -8.139015
Fe 0.000000 0.000000 0.000000
H -1.864225 -1.373075 -0.812916
H 1.864225 1.373075 0.812916
H -0.754385 -1.622230 -1.680286
H 0.754385 1.622230 1.680286
H 4.327946 -2.502434 1.010110
H -4.327946 2.502434 -1.010110
H 2.990686 -2.813606 3.050172
H -2.990686 2.813606 -3.050172
H -1.897330 -1.451412 4.521332
H 1.897330 1.451412 -4.521332
H -3.696507 -0.112066 3.521112
H 3.696507 0.112066 -3.521112
H 1.210686 -0.831243 5.387153
H -1.210686 0.831243 -5.387153
H 0.414643 -5.397642 5.559875
H -0.414643 5.397642 -5.559875
H 0.079501 -4.224762 3.583130
H -0.079501 4.224762 -3.583130
H -5.391324 -0.373189 1.137931
H 5.391324 0.373189 -1.137931
H -4.058962 3.334766 1.794308
H 4.058962 -3.334766 -1.794308
H -0.596349 -2.851687 0.696591
H 0.596349 2.851687 -0.696591
H -0.123851 -3.397870 -0.694007
H 0.123851 3.397870 0.694007
H -1.521591 -4.950468 -1.849899
H 1.521591 4.950468 1.849899
H -5.040021 -4.101816 1.013926
H 5.040021 4.101816 -1.013926
H -3.100092 -2.815782 1.151590
H 3.100092 2.815782 -1.151590
C 2.672703 -1.422035 0.240020
C -2.672703 1.422035 -0.240020
C 3.466768 -2.185822 1.157906
C -3.466768 2.185822 -1.157906
C 2.732203 -2.359904 2.280014
C -2.732203 2.359904 -2.280014
C 1.465969 -1.703831 2.049398
C -1.465969 1.703831 -2.049398
C 0.434973 -1.663575 2.982703
C -0.434973 1.663575 -2.982703
C -0.769044 -1.000974 2.774892
C 0.769044 1.000974 -2.774892
C -1.871966 -1.016206 3.700109
C 1.871966 1.016206 -3.700109
C -2.861715 -0.280708 3.148462
C 2.861715 0.280708 -3.148462
C -2.382017 0.191491 1.877470
C 2.382017 -0.191491 -1.877470
C -3.118708 0.989006 1.004997
C 3.118708 -0.989006 -1.004997
C 0.618611 -2.406689 4.270727
C -0.618611 2.406689 -4.270727
C 1.044957 -1.746264 5.419021
C -1.044957 1.746264 -5.419021
C 0.566830 -4.480445 5.525184
C -0.566830 4.480445 -5.525184
C 0.375380 -3.774324 4.340391
C -0.375380 3.774324 -4.340391
C -4.496425 1.407891 1.431247
C 4.496425 -1.407891 -1.431247
C -4.749609 2.711333 1.808481
C 4.749609 -2.711333 -1.808481
C -0.843605 -2.935464 -0.237464
C 0.843605 2.935464 0.237464
C -2.103965 -3.758003 -0.341682
C 2.103965 3.758003 0.341682
C -2.223460 -4.775297 -1.266326
C 2.223460 4.775297 1.266326
C -4.428338 -5.292104 -0.480278
C 4.428338 5.292104 0.480278
C -4.329389 -4.275898 0.440607
C 4.329389 4.275898 -0.440607
C -3.163868 -3.499056 0.523024
C 3.163868 3.499056 -0.523024
N 1.439103 -1.129903 0.790849
N -1.439103 1.129903 -0.790849
N -1.095623 -0.261668 1.647197
N 1.095623 0.261668 -1.647197
N -0.997029 -1.572399 -0.824950
N 0.997029 1.572399 0.824950
H 1.507807 -1.988891 7.384413
H -3.444602 -6.225621 -1.963580
H -5.200875 -5.808911 -0.525130
H 7.520203 -0.263300 -1.826024
H 6.187600 -3.990839 -2.456471
C 1.228381 -2.437153 6.618996
C 0.987927 -3.793908 6.649799
C -3.378492 -5.541260 -1.336985
C 5.543761 -0.499399 -1.421214
C 6.822522 -0.878028 -1.829733
C 7.038179 -2.169502 -2.237791
C 6.022771 -3.109547 -2.210006
Cl 1.221867 -4.668454 8.139015
Cl 8.625874 -2.637566 -2.786528