101
H43 Rh1 C52 N4 O1
H 1.038031 2.710328 4.199614
C -2.948415 3.692044 1.441686
H -0.897051 3.834441 3.235194
C -3.733987 3.574293 2.578751
H -4.145858 2.874632 -0.891609
C -4.626966 4.579286 2.927230
H -4.032682 1.387680 -2.807461
H -0.750588 -2.504955 -4.363059
C -3.045169 4.868187 0.708092
H 1.071318 -3.727651 -3.295473
H 3.141767 -3.759142 1.632484
C -2.696766 -0.626413 -4.077434
H 3.152863 -2.142117 3.471280
H -3.662088 2.817125 3.111688
C -3.932378 -1.228861 -4.076170
H -5.151124 4.477965 3.687899
C -4.600780 -1.449302 -5.288257
C -4.045997 -1.067295 -6.491687
H -2.503701 4.987307 -0.038860
C -2.848111 -0.456632 -6.478598
C -2.169278 -0.230714 -5.279170
C -4.784968 -1.320597 -7.794105
C 2.426097 -4.209609 -0.996285
C 1.780108 -5.385752 -1.381140
H -4.323389 -1.489009 -3.273916
C 2.502435 -6.493435 -1.800871
H -5.435173 -1.861431 -5.280297
H -2.465976 -0.178684 -7.278647
C 3.874302 -6.467420 -1.862442
H -1.343096 0.195107 -5.296771
C 4.512968 -5.326876 -1.433638
C 3.805065 -4.213717 -1.032794
H -4.267910 -0.976928 -8.527639
C 4.650776 -7.664101 -2.370250
H -5.637114 -0.879715 -7.771296
C 2.618940 0.447040 4.186890
H -4.913677 -2.263976 -7.909395
C 3.980820 0.571637 3.980657
H 0.851624 -5.426828 -1.356958
C 4.852273 0.803032 5.022687
H 2.049955 -7.268402 -2.045311
C 4.392913 0.922152 6.311477
H 5.443005 -5.306338 -1.413229
C 3.043459 0.797555 6.521393
H 4.269085 -3.446965 -0.780686
C 2.160024 0.565704 5.482862
H 4.040515 -8.355547 -2.633319
C 5.352021 1.174085 7.473735
H 5.225531 -7.992709 -1.673819
C 1.275034 0.927629 -0.833955
H 5.183367 -7.403953 -3.126386
C 1.072650 2.431011 -0.960144
H 4.317906 0.497700 3.115850
C 1.046908 2.795218 -2.430440
H 5.762560 0.881076 4.852110
H 2.713475 0.870123 7.386271
C 2.194198 3.152579 -0.223454
N -0.162075 1.149303 1.693842
H 1.248849 0.490854 5.660587
N -1.700598 0.837947 -0.722213
H 6.252988 1.216530 7.142538
N -0.121243 -1.446153 -1.423616
H 5.278790 0.460732 8.112209
N 1.301220 -1.225164 1.064900
H 5.127889 2.006559 7.897561
O 2.237249 0.389534 -1.296815
H 0.214734 2.673359 -0.553956
H 0.323471 2.333798 -2.861138
H 1.876862 2.537808 -2.837321
H 0.922636 3.742704 -2.523580
H 2.063269 4.101435 -0.295565
H 3.037468 2.914338 -0.613555
H 2.185322 2.896539 0.700278
Rh -0.108128 -0.121288 0.110991
C 0.752873 1.211054 2.725670
C 0.535398 2.415950 3.475818
C -0.520908 3.036197 2.943845
C -0.967175 2.237954 1.831917
C -2.065645 2.562454 1.010280
C -2.396296 1.897023 -0.161678
C -3.506083 2.216046 -1.035002
C -4.754788 5.719829 2.174306
C -3.445501 1.394526 -2.084887
C -3.931934 5.862226 1.068536
C -2.325949 0.525084 -1.908977
C -1.926727 -0.466216 -2.798392
C -5.755616 6.779590 2.551108
C -0.861323 -1.350720 -2.587237
C -0.413058 -2.352974 -3.508598
C 0.582665 -3.032097 -2.918498
C 0.756202 -2.491263 -1.600808
H -3.977204 6.639932 0.559354
C 1.643632 -2.991021 -0.629560
C 1.841356 -2.420065 0.629204
H -5.712564 7.499789 1.918740
C 2.685070 -2.949945 1.657838
H -5.555006 7.110936 3.429006
C 2.692171 -2.057227 2.668331
H -6.637942 6.401691 2.545856
C 1.863104 -0.952282 2.281934
C 1.701107 0.223860 3.021861