103
H45 Rh1 C53 N4
H -3.478921 -1.095715 -3.524362
H -1.342535 -1.132679 -4.720424
H 2.221574 -1.956976 0.552102
H 1.692678 -2.136252 -0.923938
H 1.643651 -4.036201 1.135142
H 0.267925 1.109188 -5.601875
H 1.821931 -4.307887 -0.408999
H -2.752431 -0.631817 7.155825
H 0.862191 0.578754 -7.774879
H -2.060111 -0.921984 5.003572
H -2.263647 0.857832 9.347268
H -3.636402 1.366087 8.783754
H 0.207013 -1.772156 1.368846
C -1.557957 2.293884 6.649602
H -0.509077 -4.459439 0.922800
H -0.348626 -4.612840 -0.638332
C 3.806779 1.118429 -1.660628
C 2.910923 0.885555 -0.565294
H -1.611441 -2.572427 0.438730
H -5.267662 1.595264 -1.205392
C 3.258568 0.843047 0.785399
C 2.343399 0.728458 1.828671
H -7.549643 1.292159 -1.666116
H -6.992518 -2.637114 -1.772481
C 2.667274 0.737699 3.233715
H -4.752136 -2.350643 -1.350324
C 1.532226 0.763574 3.916659
H -9.421580 -0.012670 -2.005849
H -9.369582 -1.378490 -1.237127
Rh -0.031585 0.306145 -0.019172
H -9.152675 -1.343374 -2.790229
C 1.815988 0.443836 -2.421652
C 3.132287 0.865225 -2.796696
H -1.005289 -2.505892 -1.015896
C 4.716006 0.880011 1.146098
C 5.338499 -0.217820 1.683072
C 0.444719 0.739548 2.962636
C 6.706796 -0.191945 1.994360
C -0.922092 0.730307 3.268000
C 7.455571 0.922519 1.759657
C -1.933830 0.573210 2.325605
C 6.836049 2.025895 1.249209
C -2.388443 -0.361980 -1.853994
C -3.351154 0.612022 2.640450
C 5.490037 2.009261 0.938965
C -2.651406 -0.840663 -3.182949
C -4.010789 0.380997 1.488384
C 8.953121 0.926216 2.070539
C -3.040650 0.190632 0.463304
C -1.473274 -0.849904 -3.843949
C -0.458565 -0.347194 -2.962265
C 0.856249 -0.079205 -3.306145
C 2.050723 -0.995912 -7.339005
C 2.491965 -1.748130 -6.271485
C 2.133920 -1.433936 -4.980785
C 2.466709 -1.323044 -8.761077
H 7.327804 2.802139 1.108547
H 5.094850 2.772568 0.583885
C 1.499541 -2.309982 0.009387
C -1.303908 0.916975 4.711598
C -3.336297 -0.162374 -0.861797
C -1.133057 2.114608 5.358803
C 1.275206 -0.367524 -4.703307
C 0.825050 0.382845 -5.759936
C -2.180450 1.292159 7.350101
C 1.193494 0.068651 -7.070074
C -2.348330 0.074196 6.706804
C -1.924916 -0.099535 5.416474
N 1.677821 0.538094 -1.067876
C -2.684091 1.493613 8.762681
C 0.232269 -1.709317 0.391574
C 1.330176 -3.794087 0.250237
H -0.720042 2.818773 4.913431
C -0.162918 -4.038049 0.120500
H -1.419790 3.116333 7.061567
C -0.798782 -2.657444 -0.081077
H -2.474612 2.384446 9.051978
C -4.774421 -0.347194 -1.205973
N 0.975102 0.702584 1.683780
N -1.774864 0.342185 0.989496
C -5.607879 0.737699 -1.314494
C -6.992518 0.551031 -1.593160
C -7.511015 -0.698352 -1.754235
C -6.655273 -1.777701 -1.659210
C -5.307775 -1.607666 -1.397900
C -9.001137 -0.873931 -1.965685
H 4.693721 1.393810 -1.598066
H 3.523017 0.728458 3.598529
N -1.035003 -0.082901 -1.722185
H 4.846744 -0.992216 1.843119
H 7.107926 -0.944163 2.366950
H 3.459133 0.950242 -3.662367
H 9.208656 0.072347 2.424461
H 9.143287 1.610050 2.716496
H 1.447543 0.789449 4.843219
H 9.446362 1.099947 1.265439
H -3.731484 0.767271 3.476151
H -4.934873 0.349577 1.382617
H 3.043147 -2.480017 -6.426055
H 2.469680 -1.944039 -4.277387
H 3.052061 -2.082654 -8.758420
H 2.922808 -0.568978 -9.142503
H 1.686735 -1.520801 -9.285506