102
H41 Ir1 C55 N4 O1
C 0.456116 2.721098 -0.218954
C 1.002646 3.057063 -1.437686
H -4.207456 1.902629 -1.794185
C 0.600653 4.193627 -2.105953
H -4.638809 1.757878 0.588952
H -4.647842 3.087443 5.270044
H -2.834356 2.456614 4.014094
H -2.773380 -0.404453 -4.704277
H -7.898793 1.620275 5.176532
H -4.034690 0.319303 -6.475265
H -6.945753 2.113501 6.318746
H -3.743357 4.031005 -5.179258
H -7.364684 3.092804 5.167787
H -2.449301 3.312611 -3.413119
H -5.046448 3.684318 -7.092044
N 0.383848 -0.175710 -1.937989
H -4.551861 2.499504 -7.990130
H -5.805266 2.313650 -7.069429
H -5.073548 -0.400879 2.336979
N 1.810020 -1.239005 0.327748
H -6.848642 0.269265 3.582392
O 1.712909 1.636358 1.356197
H 0.146717 -1.272959 5.074305
H 2.026825 -0.427684 -4.629140
H -0.114127 0.658842 -4.954965
H 4.063892 -2.849137 1.864406
H 4.557350 -2.618608 -0.508521
H -0.624523 5.742999 -1.902676
H -1.588855 5.256922 0.142121
H -0.807452 3.319760 1.176323
H 1.149441 -3.905284 4.030612
H 2.178138 -4.966791 5.789955
H 4.794481 -2.002075 6.013840
H 3.772560 -0.953077 4.277753
H 5.048549 -3.815931 7.538557
H 3.655124 -4.386000 7.972961
H 4.558479 -5.195534 6.977948
C -1.366403 -0.352628 4.112077
C -0.464177 0.362192 -2.887119
C -1.725487 0.901881 -2.646953
C -2.328477 0.998382 -1.405303
C -3.631567 1.548793 -1.154097
C -3.872086 1.464802 0.152746
C -2.731599 0.841121 0.767444
H 5.085813 -0.357989 -2.386875
C -2.600613 0.580212 2.126013
H 6.742341 -1.079958 -3.786975
C -1.491744 -0.025598 2.721133
H 4.373291 -3.966043 -5.107644
H 2.676112 -3.204760 -3.774304
H 6.510856 -3.812357 -6.069523
H 7.073195 -2.352337 -6.157655
H 7.590366 -3.326279 -5.043080
H 1.651933 2.508439 -1.815258
H 0.949574 4.427731 -2.933946
C -6.036751 0.712454 3.678069
C -5.946416 1.741794 4.569589
C -2.486564 1.382597 -3.841855
C -4.734790 2.379771 4.671569
C -2.966472 0.501582 -4.787277
C -3.641730 2.004491 3.917748
C -3.727549 0.937622 -5.851175
C -7.149007 2.183196 5.383299
C -4.036948 2.249317 -6.009138
C -3.553653 3.124971 -5.090904
C -2.775638 2.688931 -4.019810
C -4.944820 2.731820 -7.145911
C -3.743357 0.951918 3.013344
Ir 0.032555 -0.268333 0.078247
C -4.973050 0.313941 2.923744
C 1.519817 -0.606389 -2.598699
C 1.393347 -0.265063 -3.967641
C -0.196558 -0.962012 4.266338
C 0.212210 0.326451 -4.149342
C 0.444824 -1.065661 3.006873
C 1.682421 -1.666110 2.765367
C 2.289928 -1.760824 1.520622
C 3.532041 -2.411310 1.239631
C 3.808694 -2.289790 -0.062860
C 2.719022 -1.546378 -0.643841
C 2.599327 -1.244366 -2.008935
C -0.353516 4.967420 -1.464889
C 2.365584 -2.321957 3.920861
C -0.942956 4.710084 -0.244654
C 1.900356 -3.517494 4.419162
C -0.469823 3.550289 0.340298
C 2.516896 -4.157258 5.477779
C 3.623506 -3.605059 6.073233
C 4.060504 -2.404162 5.608226
C 3.447352 -1.776907 4.563663
C 4.282956 -4.316305 7.249222
N -1.804531 0.578425 -0.204395
N -0.369325 -0.475935 2.062430
C 3.704808 -1.708999 -2.915007
H -1.987460 -0.172136 4.779014
C 4.928855 -1.083532 -2.945871
C 5.921417 -1.517785 -3.789126
C 5.732841 -2.584654 -4.636985
C 4.516699 -3.215482 -4.575754
C 3.501553 -2.777655 -3.758266
C 6.825901 -3.061796 -5.560626
C 0.926990 1.518413 0.482780