87
H35 Rh1 C47 N4
H -1.562632 2.183225 -4.414469
C 0.840654 -2.276273 -1.918970
H 2.220630 3.759100 6.389927
H -0.678414 -0.012906 -5.136847
C 0.825751 -0.288847 4.163742
C 0.473057 0.434623 2.970146
H -1.456327 -2.747896 -4.665468
C 0.039890 1.767442 2.938068
H -1.223847 -3.654675 -6.811140
C -0.368441 2.434909 1.779169
H 0.878407 -3.840264 -7.777575
C 1.405957 -3.603882 -1.912143
C -0.692323 3.838708 1.715103
C -1.047004 4.115626 0.443415
C 1.692086 -3.909290 -0.627574
C -0.945666 2.886997 -0.306052
C 1.323497 -2.767757 0.183082
C -1.234776 2.761806 -1.665151
C 1.444704 -2.707197 1.568509
C 1.100952 -1.592363 2.349363
C 1.217192 -1.528221 3.783316
H 2.767058 -3.031163 -6.645697
H 2.536565 -2.091824 -4.524021
C 0.089565 2.551147 4.214479
H -0.382350 4.397265 -3.614299
H -1.454340 6.209195 -4.644043
H -3.606270 6.818056 -3.988288
C -1.075815 3.025211 4.817358
C -1.016205 3.735820 6.006665
C 0.211766 4.001831 6.596463
C 1.985170 -3.919057 2.274122
C -1.160263 1.527805 -3.857323
C 3.326400 -4.267606 2.158865
C -1.906385 3.921246 -2.339991
C -0.689342 0.325712 -4.249156
C 3.798315 -5.423790 2.775702
C -1.835846 -0.688351 0.113700
C 2.951849 -6.227356 3.515615
C 1.626515 -5.871482 3.667522
C -2.334585 -0.907150 1.520623
C -3.773178 -1.455939 1.533841
C 1.140692 -4.726205 3.040218
N -0.349465 0.474834 -1.973664
C -3.827821 5.375837 -2.570470
N 0.808067 -1.780556 -0.630651
C -3.195953 4.293074 -1.964438
N 0.630031 -0.385874 1.868037
N -0.486369 1.881074 0.517122
C 1.379133 3.563255 5.995110
C 1.316542 2.836855 4.816274
C 0.511804 -2.308344 -4.386578
C -0.597940 -2.792394 -5.068762
C -0.457856 -3.346663 -6.341302
C 0.785017 -3.447109 -6.918184
C 1.908670 -2.971253 -6.242836
C 1.769580 -2.409929 -4.984889
C -1.260607 4.643088 -3.346524
C -1.897443 5.721455 -3.958535
C -3.175089 6.082539 -3.569066
H 0.790978 0.042445 5.053017
H -0.661524 4.455871 2.435859
H -1.313263 4.962170 0.104151
H 1.551009 -4.159346 -2.668696
H 0.224681 -4.491452 3.134297
H 2.066637 -4.724251 -0.314357
H 1.513256 -2.225317 4.355923
H -1.917313 2.858833 4.409780
H -1.815976 4.040739 6.417349
H 0.251506 4.485175 7.414064
H -2.442877 -0.050350 -0.337857
H 3.919522 -3.718166 1.660396
H -1.891482 -1.548082 -0.375022
H 4.713332 -5.663590 2.686267
H -2.307760 -0.050350 2.014467
H 3.280699 -7.022945 3.919177
H -1.736495 -1.544826 1.983913
H -4.703098 5.629638 -2.301055
H 1.047302 -6.405944 4.198304
H -3.647997 3.803055 -1.289042
H -4.378222 -0.794332 1.139180
H -4.045398 -1.637620 2.456804
H -3.810931 -2.285552 1.013867
Rh 0.079093 0.020174 -0.043696
C -0.939705 1.636390 -2.433218
H 2.120287 2.529983 4.412537
C -0.205506 -0.348594 -3.070543
C 0.364765 -1.626387 -3.056439