102
H40 Ir1 C55 N4 O1 F1
C -1.166263 2.823799 1.311999
N 0.394579 -0.685653 -2.082114
N -1.768654 -1.381319 -0.346459
N -0.380244 -0.196856 1.860839
N 1.796426 0.489657 0.123045
H -6.752376 -1.139666 3.741039
O -1.630933 1.439790 -1.575447
H -7.583183 -2.488892 5.460462
H -6.487010 -2.866017 6.516818
H 3.770432 4.108950 5.009702
H -6.983031 -3.936976 5.484380
H 5.044634 3.762948 6.948367
C 5.951580 1.630183 -4.633197
C 6.015402 0.518948 -3.804403
C 7.130609 2.058566 -5.442444
H 1.986772 -0.420201 -4.828695
H -0.091365 -1.584527 -5.100022
H -3.978914 -3.104008 -1.839646
H -4.493969 -2.794619 0.522643
H -2.058653 -0.306698 4.554228
H 1.376543 5.172587 0.003488
H 0.074349 0.813690 4.838327
H -1.278232 4.200485 2.823708
H 4.151125 1.904788 1.693613
H 4.626991 1.657643 -0.691116
H -3.767293 -1.308091 -4.232480
H -4.817559 -2.507199 -5.905648
H -2.081046 -5.346615 -5.624458
H -1.036379 -4.156660 -3.971909
H -3.758336 -5.621220 -7.250339
H -4.240920 -4.262841 -7.869021
H -5.138908 -5.013428 -6.824885
H -5.093001 -0.412879 2.295977
H -4.317059 -3.849102 5.241402
H -2.643129 -3.147944 3.851386
H 2.672020 -0.337820 4.658812
H 3.899196 0.410936 6.437654
H 2.508546 3.396808 3.231608
H 5.713087 2.347817 7.047454
H 4.417610 2.660867 7.872858
H 2.882521 2.419214 -3.934023
H 4.637069 3.003208 -5.226930
H 5.027839 -0.630732 -2.533271
H 0.774153 3.279643 -1.196053
H -1.791048 2.219668 1.640973
Ir -0.029446 -0.371212 -0.130213
C -5.920449 -1.553405 3.761503
C 1.509786 -0.218824 -2.761685
C -5.706589 -2.574935 4.645277
C 1.372065 -0.599610 -4.154747
C 0.238943 -1.236694 -4.301722
C -0.407116 -1.306260 -3.015669
C -6.789325 -3.006980 5.616061
C -1.613018 -1.921375 -2.742327
C -2.226606 -1.961651 -1.516421
C -3.462739 -2.631687 -1.226313
C -3.751618 -2.461432 0.072164
C -2.677839 -1.657755 0.642095
C -2.592743 -1.280630 1.969444
C -1.516725 -0.594118 2.522287
C -1.417073 -0.174888 3.892730
H 6.807020 0.031982 -3.753616
C -0.244762 0.434736 4.050195
C 0.427050 0.401783 2.812624
H 6.904432 2.842106 -5.948994
C 1.692295 0.927194 2.558513
H 7.380299 1.350086 -6.041521
C 2.307002 0.956485 1.310917
H 7.865123 2.256282 -4.856718
C 3.591282 1.514849 1.060944
C 0.380023 3.455391 -0.373192
C 3.854408 1.383038 -0.252553
C 2.720166 0.740462 -0.851097
C 0.715929 4.595917 0.314267
C 2.597001 0.412767 -2.196284
C 0.047476 4.844892 1.460474
C -2.316180 -2.635348 -3.887573
C -0.867307 4.002770 2.012514
C -3.425789 -2.131906 -4.497212
C -4.048334 -2.849540 -5.511887
C -3.552314 -4.046818 -5.942252
C -2.433747 -4.530123 -5.350771
C -1.816801 -3.819811 -4.349546
C -4.236442 -4.806559 -7.076188
C -3.678838 -1.718168 2.888178
C -4.920570 -1.112206 2.882793
C -4.483892 -3.149775 4.648913
C -3.476175 -2.736037 3.804808
C 2.465998 1.448943 3.735547
F 0.331877 6.001894 2.141796
C 2.893718 0.562885 4.719108
C 3.640548 1.013237 5.776132
C 4.020122 2.335002 5.882988
C 3.562170 3.206415 4.932924
C 2.799664 2.783524 3.866446
C 4.878921 2.821968 7.046468
C 3.737961 0.802706 -3.071173
C 3.665181 1.917603 -3.898541
C 4.733362 2.274589 -4.654279
C 4.946102 0.127178 -3.065218
C -0.902017 1.351916 -0.635079
C -0.520204 2.587639 0.138286