105
Co1 H43 C52 N4 O5
C 0.380326 -2.442202 -5.173919
C 0.591563 -2.780902 -6.498633
C 1.293717 -1.911853 -7.315137
C 1.789477 -0.724594 -6.795597
C 1.575677 -0.405179 -5.479081
C 1.144439 -3.384777 -9.163075
H -0.849073 4.657245 -2.689833
H -1.855325 6.548423 -3.544530
O 1.570233 -2.151113 -8.630834
C 7.006611 -6.292055 2.931620
Co -0.035635 -0.023448 0.039064
H 0.498275 -1.011464 4.977336
H 1.866880 -2.709787 3.888905
H 3.134715 -3.827137 -1.086291
H 2.418747 -3.001479 -3.271304
H -2.517140 0.287891 5.032451
H -2.687546 0.720608 7.285847
H 1.624030 -4.931227 2.272629
H 3.127750 -6.510221 2.986619
H 4.635936 -2.641083 1.057534
O 5.615968 -6.544935 2.873760
H -2.851013 0.366238 -0.350223
H -3.401416 -0.449776 1.763520
H -3.886755 -1.799756 1.131764
C -2.320921 5.999993 -2.955279
H -3.621521 -2.178233 -1.353223
H -2.951563 -1.060883 -2.224901
C -0.601381 0.915873 3.278347
C 0.126148 -0.246074 3.039817
C 0.648291 -1.094633 4.063439
C 1.393283 -2.029976 3.466696
C 1.325098 -1.793729 2.058482
C 2.021341 -2.538870 1.111795
C 1.907083 -2.319860 -0.245571
C 2.549927 -3.120808 -1.242228
C 2.157306 -2.670011 -2.442425
C 1.258362 -1.582795 -2.203428
C 0.602074 -0.889725 -3.212930
C -0.266486 0.160125 -2.956467
H -2.292479 4.395687 1.150147
H -1.850172 3.397666 3.327204
C -0.819893 1.291939 4.718998
C -1.864309 0.801366 5.452934
C -1.965442 1.055692 6.805352
H -4.281706 8.962717 -4.222460
H -3.482522 7.734476 -4.781419
H -2.875506 8.605936 -3.628105
H 0.635915 2.886602 7.130647
C 2.974717 -3.601738 1.581826
H 0.770875 2.470760 4.883165
C 2.536062 -4.780560 2.165843
H -0.432309 2.856469 10.399159
C 3.437336 -5.729162 2.589571
H -0.235753 3.683331 9.082549
C 4.801047 -5.536307 2.431390
H 0.658622 2.426163 9.359182
C 5.240946 -4.379182 1.877972
C 4.321651 -3.423348 1.447118
C -1.559396 -1.198292 0.066608
C -2.940157 -0.600444 -0.215603
C -3.804070 -0.854770 0.990515
C -3.532739 -1.230836 -1.480010
N -0.893546 1.525654 0.912962
N 0.530788 -0.689639 1.793111
N 1.120621 -1.351491 -0.853665
N -0.483679 0.736639 -1.713851
C -1.477360 2.635048 0.304408
O -1.425509 -2.340110 0.316934
C -1.906215 3.562798 1.304943
C -1.654471 3.022806 2.499796
C -1.028476 1.757200 2.269021
H -4.674222 -0.475088 0.847522
H -4.395991 -0.849949 -1.654121
C -1.645408 1.865680 -3.367618
C -1.295464 1.830123 -1.981572
C -3.611890 6.310971 -2.588274
C -1.696385 2.781858 -1.052930
C -3.686393 8.245540 -3.993344
C -1.003063 1.806618 7.449029
C 0.001544 2.345405 6.721516
C 0.078675 2.087462 5.371556
C -0.217628 2.803434 9.465885
O -4.308479 7.402164 -3.028777
C -2.377766 4.014800 -1.569811
C -1.721478 4.858537 -2.439825
H -1.061164 0.618154 -4.866521
O -1.167596 1.982477 8.807459
H -5.149619 5.685400 -1.461843
H -4.161750 3.782169 -0.653437
H -0.096106 -3.025586 -4.628470
H 0.265613 -3.583658 -6.835969
H 2.268614 -0.143620 -7.341460
H 1.911439 0.392756 -5.140655
H 1.398138 -3.440223 -10.086602
H 0.189129 -3.452276 -9.089118
H 1.553488 -4.103159 -8.675401
H 6.153068 -4.223693 1.785434
H 7.461501 -7.074320 3.253371
H 7.174739 -5.558004 3.528015
H 7.329596 -6.071478 2.054961
C -1.016786 0.842347 -3.964786
H -2.206014 2.482814 -3.778782
C -4.280100 5.476876 -1.717892
C -3.684969 4.340241 -1.224952
C 0.857495 -1.263380 -4.638649