89
Fe1 H34 C48 N6
H -4.635751 1.632337 2.554791
H -6.425486 2.938148 3.059320
H -7.066457 4.700110 1.616283
H -5.805257 5.151442 -0.250842
H -3.967950 3.819932 -0.766089
H 3.369246 3.784597 1.691422
H -0.329003 -4.994696 -1.258614
H 3.278429 6.998531 -1.664301
H 2.131125 4.934610 -1.917940
C 3.981953 5.644374 1.199798
C 3.944192 6.579964 0.210242
H 0.572476 -0.376975 4.991956
H 2.632071 0.699155 4.447980
H 2.479276 0.914381 1.872700
H -2.856648 -4.562638 1.495933
H -1.207202 -1.926923 2.587289
H -4.162769 -6.462730 1.305817
H -1.248426 -1.530200 4.175811
H -4.873936 -7.187110 -0.771180
H -1.994924 -0.576139 2.932405
H -4.131868 -6.077251 -2.648417
H -4.568691 -2.305978 0.153081
H 6.759716 -4.397203 -3.419687
H 4.898440 0.011717 -1.923595
H 2.036882 -4.485542 -1.788083
C -3.027594 0.414543 0.378348
C -1.649400 2.497898 0.446341
C 0.475423 2.978142 0.100370
C 2.474852 1.728385 -0.705874
C -4.285736 -0.297791 0.409687
C -1.458452 3.883857 0.799622
H 4.245232 -3.693703 -0.326664
C -0.159619 4.178589 0.597010
C 3.826820 1.667030 -1.196766
C 4.071147 0.383062 -1.533059
H 3.799569 -1.705272 -3.803125
C -2.875125 1.803072 0.549444
C 1.828700 2.877596 -0.254658
H -2.857532 -4.117731 -2.507147
C 6.023410 -3.943783 -3.069344
C -4.087166 2.614185 0.861501
C -4.857337 2.355753 1.995155
C -5.961593 3.145183 2.286561
C -6.318123 4.184692 1.450953
C -5.577588 4.437181 0.321722
C -4.470102 3.658995 0.023258
C 2.628198 4.147590 -0.126074
C 3.333578 4.419674 1.030866
C 3.269087 6.315269 -0.951304
C 2.613413 5.096351 -1.121824
C 0.076252 -0.536306 3.136646
C 1.954104 0.407958 3.805276
C 1.856226 0.500633 2.474123
C -3.137047 -4.841468 0.662439
C -1.239019 -1.220371 3.215268
C -3.922034 -5.978632 0.540302
C -4.322041 -6.420809 -0.699664
C -3.909715 -5.741081 -1.826247
C -3.118643 -4.606647 -1.716575
C -2.584834 -1.714749 0.002437
C 2.872127 -0.372477 -1.248956
C 1.545987 -2.493096 -1.157937
C -0.551387 -2.998234 -0.689265
C -4.009847 -1.602960 0.194098
C 1.373373 -3.898168 -1.433895
C 0.087555 -4.200127 -1.147755
C 2.721045 -1.761488 -1.418381
C -1.907045 -2.892549 -0.350135
C 3.880236 -2.520561 -1.983860
C 4.550174 -3.484902 -1.233531
N -2.002672 -0.472220 0.135517
C 5.615390 -4.190490 -1.775663
N -0.456078 1.965776 0.028141
N 1.908146 0.473168 -0.746814
C 5.366815 -3.002410 -3.820573
C 4.293581 -2.291362 -3.285841
C -2.738461 -4.137326 -0.467421
N 0.673314 -0.105533 2.043896
N 0.806000 -0.257155 4.220213
H 4.452730 5.752148 1.978201
H 4.385779 7.440226 0.354197
H 6.064692 -4.866203 -1.226189
N 0.362021 -1.963865 -0.695673
Fe 0.037357 -0.051389 0.021761
H -5.151034 0.111299 0.516518
H -2.136623 4.476853 1.126062
H 0.269498 5.027768 0.709703
H 4.394290 2.392052 -1.314780
H 5.568849 -2.872954 -4.735525