85
Zn1 H44 C36 N4
H -0.067285 -3.599802 -6.244605
H -1.372364 -3.291694 -5.370509
C -0.403303 -3.159304 -5.436254
Zn 0.000000 0.000000 0.000000
H -1.576229 1.341952 3.841745
H 1.576229 -1.341952 -3.841745
H 0.087461 -4.734744 -4.180863
H -0.087461 4.734744 4.180863
H 1.256129 -3.647943 -4.293169
H -1.256129 3.647943 4.293169
H -0.206284 -2.200079 -5.480921
H 0.206284 2.200079 5.480921
H -1.771796 -5.317260 -2.953021
H 1.771796 5.317260 2.953021
H -1.247214 -5.571208 -0.148070
H 1.247214 5.571208 0.148070
H -1.583443 -1.103650 5.642441
H 1.583443 1.103650 -5.642441
C 0.284263 -1.871512 -2.399359
C -0.284263 1.871512 2.399359
C -0.177131 -3.141973 -2.923827
C 0.177131 3.141973 2.923827
C -1.093110 -3.620382 -2.028422
C 1.093110 3.620382 2.028422
C -1.194414 -2.633716 -0.975436
C 1.194414 2.633716 0.975436
C -2.046118 -2.730481 0.117844
C 2.046118 2.730481 -0.117844
C -2.126032 -1.842506 1.186860
C 2.126032 1.842506 -1.186860
C -1.733743 -0.150082 2.512622
C 1.733743 0.150082 -2.512622
C -1.234113 1.050454 3.004481
C 1.234113 -1.050454 -3.004481
C 0.276344 -3.763002 -4.208485
C -0.276344 3.763002 4.208485
C -1.806477 -4.936097 -2.039519
C 1.806477 4.936097 2.039519
C -1.194721 -5.933474 -1.057336
C 1.194721 5.933474 1.057336
N -0.342297 -1.595298 -1.217797
N 0.342297 1.595298 1.217797
N -1.382698 -0.702629 1.317012
N 1.382698 0.702629 -1.317012
H 0.067285 3.599802 6.244605
H 1.372364 3.291694 5.370509
C 0.403303 3.159304 5.436254
H 2.632415 3.477040 -0.137801
H -2.632415 -3.477040 0.137801
H 2.758010 4.792514 1.805982
H 1.688281 6.779566 1.099371
H -2.758010 -4.792514 -1.805982
H -1.688281 -6.779566 -1.099371
H 4.344320 3.418066 -1.737150
H -0.256551 -6.091139 -1.292031
H 4.568635 2.941463 -3.248735
H 0.256551 6.091139 1.292031
H 3.749841 5.162002 -3.223470
H -4.344320 -3.418066 1.737150
H 2.673771 4.211202 -3.929694
H -4.568635 -2.941463 3.248735
H 2.450864 4.687806 -2.418138
H -3.749841 -5.162002 3.223470
H 4.232520 1.065137 -4.556955
H -2.673771 -4.211202 3.929694
H 3.313355 -0.234691 -4.718920
H -2.450864 -4.687806 2.418138
H 2.919673 1.248076 -6.510207
H -4.232520 -1.065137 4.556955
H -3.313355 0.234691 4.718920
H 2.504075 2.402275 -5.482628
H -2.919673 -1.248076 6.510207
H -2.504075 -2.402275 5.482628
C 2.974085 2.030380 -2.350556
C 2.722285 0.975954 -3.181539
C -2.974085 -2.030380 2.350556
C -2.722285 -0.975954 3.181539
C 3.880958 3.192402 -2.582415
C 3.120414 4.424230 -3.083769
C 3.297644 0.738375 -4.540169
C -3.880958 -3.192402 2.582415
C 2.505381 1.435829 -5.643305
C -3.120414 -4.424230 3.083769
C -3.297644 -0.738375 4.540169
C -2.505381 -1.435829 5.643305