99
H50 Ru1 C41 N6 O1
H 2.898486 -0.560840 0.269999
H 3.038100 2.465042 2.816262
H 5.151015 0.408474 2.625957
H 5.406068 1.417102 1.453428
H 5.194983 -0.105054 1.144707
H -0.161206 -5.450411 2.103048
H 3.352892 2.320075 -4.206171
H 3.305626 3.108795 -5.560574
C 2.369452 -2.321331 -2.728332
H 1.338112 -5.865655 3.845842
H 1.127541 -4.408613 4.384136
C 3.279614 -2.409786 -3.919412
C 4.677062 -1.924514 -3.640763
C 2.642649 0.152939 0.807821
C 2.737385 1.826204 2.210148
C 4.936368 0.623468 1.715335
C 0.768388 -3.302931 0.353769
H -1.493484 4.052310 -0.704999
C -0.595626 -3.492125 2.492494
H 2.002900 0.084141 -3.853399
N 3.486774 0.848290 1.593273
C -0.194152 -4.892655 2.896761
H -5.583095 2.371674 2.828673
H -2.467951 5.106393 1.125953
H -3.320156 4.828744 2.411047
H -4.683873 5.627292 0.686224
H -5.130586 4.180078 1.089206
H -4.277679 4.404899 -0.207532
H -0.169190 5.304187 -2.216956
H 0.583410 5.144478 -3.581116
H -1.523284 6.000767 -3.970773
H -2.179118 4.773460 -3.250265
H -1.434051 4.574437 -4.615408
H 0.759984 2.209507 1.996684
H 1.368866 1.794262 -5.370314
H 0.966268 3.315189 -5.360092
H 2.954955 3.836088 -4.216133
Ru -0.359879 -0.121024 -0.197100
C 1.589109 -1.148080 -2.349281
C 1.238240 -2.681292 -0.789630
C -0.099794 -2.789403 1.321902
C -1.412946 -2.640750 3.152542
C -1.439727 -1.396244 2.392547
C -2.139932 -0.241421 2.733945
H -0.873085 -5.256302 3.484941
C -2.178615 0.966229 2.047259
C -2.901781 2.164051 2.464406
C -2.647115 3.116166 1.531903
C -1.780100 2.522783 0.526567
C -1.254592 3.160393 -0.595938
C -0.421984 2.633352 -1.572085
C 0.087958 3.345902 -2.744795
C 0.818501 2.449071 -3.471086
C 0.812178 1.195965 -2.721223
C 1.519654 0.048513 -3.060183
C -3.155216 4.535124 1.500888
C -4.429306 4.702205 0.693309
C -0.154782 4.807859 -3.050173
C -1.438773 5.062166 -3.787221
C -1.794158 -0.778291 -1.124669
C 1.477552 1.668951 1.755838
H -1.292356 -3.395071 5.107075
H -3.628691 -3.316445 5.485174
H -3.329865 -4.091650 4.155770
C 1.437490 2.623523 -4.870185
C 2.897901 3.008055 -4.697493
N 0.920845 -1.396244 -1.173528
N -0.634541 -1.522783 1.286666
N -1.523302 1.211936 0.865066
N 0.038853 1.337247 -1.596882
N 1.393117 0.613640 0.895131
O -2.675311 -1.240220 -1.711104
H -2.641293 -0.283191 3.515955
H 1.067807 -4.172734 0.495060
H 3.320958 -3.332416 -4.215268
H 2.960477 -4.943025 -2.587533
H 2.048849 -5.256302 -1.353365
H 4.265615 -5.660490 -0.807256
H -3.354424 1.752492 4.401406
H -3.765476 3.203392 3.980929
H 3.727454 -4.484782 0.079943
H 4.639962 -4.178876 -1.157971
H -5.639586 1.897459 4.322285
H -5.161408 0.908488 3.204040
H 1.835668 -4.639577 3.005579
C -3.290299 -3.236590 4.591147
H -1.788446 -1.897486 5.078917
H -3.823107 -2.605123 4.101587
C 2.147234 -3.263618 -1.769755
H 2.902049 -1.883973 -4.642604
H 5.219465 -2.047368 -4.423782
H 5.050020 -2.424528 -2.912797
H 4.652521 -0.993285 -3.411998
C -3.755422 2.278305 3.691958
C -5.160101 1.823747 3.494629
C 2.727570 -4.651863 -1.693339
C 3.951609 -4.753831 -0.815603
C 1.150801 -4.957768 3.597049
C -1.849838 -2.757461 4.634796