167
Fe1 H76 C74 N12 O4
Fe -0.065190 -1.130368 0.080615
C -5.181177 -2.936673 -1.479662
C -5.877792 1.835271 -1.110379
H 2.165689 1.197861 -3.879022
C -5.052587 3.091984 -0.836459
C 5.039389 -2.760416 1.748334
H -2.214405 0.790462 4.004962
C -5.306915 4.078512 -1.987581
N -2.141166 0.828090 4.880870
H -4.314361 0.841387 -1.598537
C 5.824928 1.969656 1.001353
C -5.570446 3.678469 0.471835
H -3.874926 -1.320091 3.504195
H -2.541065 0.165218 7.410859
C 5.059222 3.283801 0.821445
C -3.552933 2.836511 -0.707079
C 1.345151 -1.061223 -4.617302
H -5.035087 -1.342724 1.309484
H -2.299959 -1.934019 8.410652
C 5.629710 3.975531 -0.411106
H -3.475675 -1.379503 -3.724379
C 1.861714 -0.014717 -5.385447
H -1.658305 -3.775802 7.135675
C 5.325346 4.142451 2.057064
H -1.305720 -1.141854 -4.879667
H -1.134612 -3.495715 4.890156
C 2.166597 -0.229167 -6.737152
O -2.059890 2.268981 6.627008
H 3.727694 -0.618459 -3.309297
C 1.958286 -1.469471 -7.301027
H -0.490367 3.435727 3.985082
C 1.457926 -2.512016 -6.550321
H -0.905173 4.329741 5.247209
C 1.166266 -2.304639 -5.217625
C 2.236466 2.441843 -5.326775
H -0.648511 1.576969 -1.504721
C 2.510627 3.615378 -4.388581
H -3.239754 4.389154 6.040905
H 0.489613 3.585672 1.767801
C 1.215524 4.420275 -4.279700
H -4.393434 3.656401 5.207430
H 0.554427 1.178057 2.245312
C 2.974562 3.193551 -2.993164
H -0.678326 4.137359 -1.737136
C 3.587179 4.478555 -5.037517
H 0.278321 5.512330 0.494068
H -0.223335 6.177183 -0.924685
H -1.883856 -3.792777 -0.145387
H -1.006282 -5.974059 -0.876818
H 1.991989 -3.424986 -0.448434
H 2.695864 -5.770360 -1.178313
H 0.624425 -7.498977 -1.685989
H 2.231799 -7.767747 -1.907126
H -7.582256 -0.174281 -2.143497
H -8.257613 -2.392343 -2.345445
H -6.773384 -4.129447 -1.927445
C 3.554901 3.087174 0.648652
H -4.574911 -3.648490 -1.312650
H 3.748434 2.595466 -3.072236
H -4.981940 3.690351 -2.827594
H 4.434161 3.987413 -5.054659
H -4.832869 4.918207 -1.809324
H -6.267839 4.256183 -2.059261
H -6.525797 3.879905 0.384975
H -5.080457 4.502320 0.676477
H -5.436931 3.031157 1.194633
H 4.413421 -3.470253 1.667623
H -3.396603 2.154117 -0.022466
H 6.591153 4.120384 -0.287927
H -3.101053 3.667718 -0.448088
H 5.183405 4.838990 -0.537624
H -3.199570 2.524737 -1.566025
C -2.986593 2.810200 3.102838
H 5.481547 3.413094 -1.198943
H 2.515682 0.479255 -7.263301
H 2.163097 -1.608665 -8.218749
H 1.315337 -3.362745 -6.947039
H 0.835717 -3.028904 -4.698044
H 4.891744 5.014398 1.948752
H 0.938122 4.714507 -5.173210
N 5.096555 0.895424 1.401681
H 1.364595 5.203952 -3.708440
H 0.514242 3.860101 -3.888208
H 2.247354 2.725608 -2.533422
H 3.228630 3.987413 -2.478556
O 7.024626 1.909678 0.834956
C 2.495849 -1.522942 3.450822
C 1.308596 -1.525488 4.086560
H 3.699176 5.302972 -4.522389
H 3.320666 4.700361 -5.954425
C 4.626009 -1.460135 1.492402
N -1.825394 -1.255020 1.013081
N -1.005893 -1.058677 -1.667249
N 1.683607 -0.940984 -0.840415
C 5.554267 -0.423530 1.624151
N 0.858272 -1.300004 1.828435
N -0.093190 0.856947 0.284174
N -0.130781 3.014748 -0.118966
N 0.046159 -3.097369 -0.175330
N 0.836624 -5.062787 -0.770612
N 2.098543 1.220495 -4.755475
H 3.131410 3.950634 0.462074
H 3.178076 2.708633 1.471434
H 3.389368 2.473812 -0.098522
N -5.174047 0.723977 -1.451542
O 2.103728 2.618665 -6.528809
O -7.095118 1.844890 -1.023149
C 6.873740 -0.701354 1.984207
C 7.256917 -2.008992 2.231239
H -1.313498 4.788065 3.769097
C 6.350047 -3.047293 2.120251
H -3.666227 4.949327 4.604491
H -2.302551 2.258796 2.667310
H -3.161978 3.605476 2.557001
H -3.812705 2.292746 3.198616
H 3.353072 -1.608665 3.851402
H 1.171451 -1.597349 5.024237
C 3.948708 -0.792453 -1.272762
C -2.056260 -1.287273 2.373996
C -3.072665 -1.293780 0.442191
C -2.355957 -1.228426 -1.902413
C -0.435534 -1.030102 -2.922447
C 1.909417 -0.825554 -2.195211
C -1.497568 -1.500874 4.786759
C 2.935285 -0.959939 -0.269379
C -1.948540 -0.406272 5.537582
C 2.217540 -1.367055 2.045953
C -2.247589 -0.574325 6.892667
C 0.287136 -1.400439 3.082439
C -2.115240 -1.828208 7.484149
C -3.465175 -1.312169 2.648004
C -1.718971 -2.914889 6.736161
H 7.506319 0.003956 2.058552
C -4.096847 -1.322072 1.453339
C -1.411496 -2.745139 5.401328
H 8.154454 -2.194302 2.481031
C -2.624933 -1.276805 -3.314433
C -2.227756 2.071223 5.434308
H 6.617079 -3.942722 2.295099
C -1.447143 -1.150059 -3.940350
C -2.492844 3.240232 4.479720
C 3.318203 -0.720592 -2.458649
C -1.183093 4.017968 4.359318
C -3.543081 4.139905 5.142527
H 6.291715 4.270329 2.164238
C -3.335159 -1.344705 -0.922888
H 4.964335 3.693180 2.849354
C 0.922697 -0.914107 -3.177565
C 3.204779 -1.219656 1.076665
H 4.238424 1.036599 1.539923
C -1.073040 -1.364509 3.356145
C -0.350758 1.761996 -0.622152
C 0.271581 2.885172 1.165010
C 0.301654 1.568198 1.416390
C -0.332611 4.207239 -0.854442
C -0.067783 5.410481 -0.384868
C -0.968690 -3.988838 -0.304353
C -0.496848 -5.192079 -0.693792
H 4.886559 -0.742942 -1.126364
C 1.113119 -3.786270 -0.459553
C 1.780697 -6.024418 -1.208319
C 1.524036 -7.196256 -1.636705
C -4.744204 -1.626489 -1.352676
C -5.654315 -0.590451 -1.598229
C -6.967566 -0.878742 -1.972234
C -7.364354 -2.195716 -2.090975
C -6.488205 -3.228077 -1.846349