105
Fe1 P2 H22 C56 N4 F20
C -0.394732 -1.835391 -3.937430
H 1.294619 1.879515 3.705531
F 6.646851 4.556353 -4.107993
N -0.164873 -1.165021 1.612674
H 0.926541 2.662904 1.225528
H -1.142311 2.693868 0.804316
N -1.983813 -0.065799 -0.246716
C 1.321907 1.702246 -2.142047
F -3.309781 -0.222167 -4.375814
C 1.014118 2.468605 -3.313097
F 4.978443 -0.739266 6.216954
C -0.314770 2.402806 -3.488733
F 5.723103 -3.343338 6.160208
C -0.846452 1.599291 -2.438652
F 4.757723 -4.963529 4.215848
C 1.349196 -1.730888 -5.583473
F 3.103277 -3.998227 2.343611
C -2.195775 1.297392 -2.270787
C -2.718699 0.529484 -1.258801
F -3.497755 -4.053962 0.701203
C -4.117395 0.204362 -1.097435
F -5.382186 -5.517785 1.904780
C 4.220203 0.587542 0.033124
C 2.902992 0.767907 -0.506380
C -0.002538 -1.777334 -5.302509
F -5.976315 -2.134194 5.100999
C 2.590506 1.538911 -1.609211
F -4.084014 -0.674241 3.895935
C -3.145162 1.854744 -3.295870
C -3.657932 1.059743 -4.299721
C -4.521011 1.549748 -5.261614
C -4.890358 2.864170 -5.221082
C -4.409319 3.684716 -4.248664
C -3.556393 3.160650 -3.291444
C 3.703751 2.314559 -2.261704
C 4.085664 3.550797 -1.787585
C 5.066782 4.305544 -2.404657
C 5.693783 3.829473 -3.512519
C 5.359975 2.611039 -4.005242
C 4.376318 1.871774 -3.374018
C -0.577501 1.825328 2.966638
C -1.912735 1.709213 3.350357
C -2.298583 1.684442 4.655312
C -1.349196 1.730888 5.583473
C 0.002538 1.777334 5.302509
C 0.394732 1.835391 3.937430
N 0.164873 1.165020 -1.612674
N 1.983813 0.065798 0.246716
F 3.309781 0.222167 4.375814
F -4.978443 0.739265 -6.216954
F -5.723103 3.343338 -6.160208
F -4.757723 4.963529 -4.215848
F -3.103277 3.998226 -2.343611
F 3.497755 4.053962 -0.701203
F 5.382186 5.517785 -1.904780
F 5.976315 2.134194 -5.100999
F 4.084014 0.674241 -3.895935
F -6.646851 -4.556353 4.107993
P 0.171727 -1.899564 -1.211885
H -1.620812 -2.925324 3.848769
H 0.799617 -2.807661 4.171589
H 4.816743 -0.495424 1.638161
H -5.005858 -0.957562 0.301164
H 2.565122 -1.645737 -2.688715
H 3.197200 -1.636447 -4.890264
H 1.610658 -1.731662 -6.474722
H -0.634617 -1.770367 -5.985060
H -1.294619 -1.879515 -3.705531
H -0.926541 -2.662904 -1.225528
H 1.142311 -2.693868 -0.804316
C -1.321907 -1.702246 2.142047
C -1.014118 -2.468605 3.313097
C 0.314770 -2.402806 3.488733
C 0.846452 -1.599291 2.438652
C 2.195775 -1.297392 2.270787
C 2.718699 -0.529484 1.258801
C 4.117395 -0.204362 1.097435
C -4.220203 -0.587542 -0.033124
C -2.902992 -0.767907 0.506380
C -2.590506 -1.538911 1.609211
C 3.145162 -1.854744 3.295870
C 3.657932 -1.059743 4.299721
C 4.521011 -1.549748 5.261614
C 4.890358 -2.864170 5.221082
C 4.409319 -3.684716 4.248664
C 3.556393 -3.160650 3.291444
C -3.703751 -2.314559 2.261704
Fe -0.000000 -0.000000 -0.000000
C -4.085664 -3.550797 1.787585
P -0.171727 1.899564 1.211885
C -5.066782 -4.305544 2.404657
H 1.620812 2.925324 -3.848769
C -5.693783 -3.829473 3.512519
H -0.799617 2.807661 -4.171589
C -5.359975 -2.611039 4.005242
H -4.816743 0.495424 -1.638161
C -4.376318 -1.871774 3.374018
H 5.005858 0.957562 -0.301164
C 0.577501 -1.825328 -2.966638
C 1.912735 -1.709213 -3.350357
H -2.565122 1.645737 2.688715
C 2.298583 -1.684442 -4.655312
H -3.197200 1.636447 4.890264
H -1.610658 1.731662 6.474722
H 0.634617 1.770367 5.985060