121
H48 Ru1 C61 S2 N6 O3
H 2.461770 2.242995 3.863190
H 3.181496 3.000679 5.938530
H 2.275157 4.932262 6.839918
H -5.471205 -2.174145 3.582158
H -7.209463 -0.720329 4.154608
H -7.334968 1.346084 3.146355
C 5.864113 3.029990 -3.761135
C 5.915229 4.250786 -4.319734
C 4.831184 5.039247 -4.262044
C 1.166635 3.753967 3.497597
C 2.103306 3.046111 4.221569
C 2.525496 3.488705 5.455436
C 1.995430 4.634757 5.981496
C -5.519046 -1.309476 3.192964
C -6.550414 -0.456531 3.523668
C 0.675536 4.908814 4.058364
C -6.613609 0.762799 2.936308
H 4.859058 5.899519 -4.664356
H -3.334170 1.691951 3.608543
H -5.008966 -0.682225 -0.800797
H -4.066483 -1.066196 -3.047651
H 0.431192 0.455035 -5.589462
H 2.334587 1.936697 -5.006791
H 3.998618 4.313804 -0.553233
H 3.188369 4.422254 1.766392
H -3.848085 -1.492669 2.045358
H -5.709251 2.030491 1.626997
H -1.607111 -2.470185 -3.744844
H -2.317686 -3.856586 -5.485414
H -3.020617 -2.937692 -7.483891
H -3.014088 -0.628000 -7.753986
H -2.280133 0.762799 -6.032325
H 0.715885 6.141333 5.659312
H 4.674733 1.718331 -2.715857
H 0.036229 5.418822 3.576041
H 1.650264 -1.111628 1.764032
H 1.098179 0.349516 2.102579
H -0.080573 -1.570343 -1.684841
H 0.899176 -2.347079 -0.689857
H -1.774481 -1.551290 -0.072170
H -1.292153 -3.057866 -0.322239
H -0.233962 -1.294821 3.133456
H -1.108337 -0.441876 2.098223
H -1.334511 -5.810152 0.413260
H 0.139521 -7.337246 -0.587515
H 2.371953 -7.341642 0.042169
H 5.082145 -4.721255 2.666296
H 3.677103 -3.084246 3.481863
H 1.417965 -3.123816 3.087304
H 4.453675 -8.235622 2.767422
H 4.468780 -8.905375 1.313589
H 3.118682 -8.266399 1.885982
H 6.128826 -5.823342 0.983119
H 6.363260 -7.406126 0.912704
H 6.146235 -6.690942 2.327388
Ru -0.553566 1.898153 -0.728160
C -0.631496 2.638691 2.251181
C -1.452049 2.519982 3.422695
C -2.595304 1.900058 3.048648
C -2.482366 1.617209 1.651532
C -3.406967 0.868317 0.919106
C -3.275799 0.469690 -0.397001
C -4.181817 -0.343685 -1.123230
C -3.665845 -0.556188 -2.353387
C -2.399767 0.128219 -2.427180
C -1.528698 0.144340 -3.530946
C -0.302339 0.844869 -3.606822
C 0.567231 0.897628 -4.759509
C 1.612433 1.697814 -4.437588
C 1.425958 2.112562 -3.079863
C 2.344983 2.883436 -2.331945
C 2.205301 3.223442 -1.001845
C 3.183727 3.948884 -0.226569
C 2.740184 4.016299 1.033637
C 1.443291 3.356806 1.079428
C 0.645005 3.242494 2.223880
C -4.587752 0.365637 1.722585
C -4.547922 -0.897659 2.283751
C -5.640258 1.174616 2.033432
C -1.909153 -0.730588 -4.695638
C -1.902320 -2.083282 -4.560705
C -2.321020 -2.912778 -5.599509
C -2.731343 -2.374924 -6.774406
C -2.724450 -1.006109 -6.932130
C -2.302037 -0.178079 -5.906896
C 3.591471 3.359737 -3.057196
C 4.689616 2.581535 -3.115179
C 1.078430 5.344079 5.291110
C 3.637750 4.612774 -3.608712
C -1.390048 3.425686 -1.246808
C 0.901053 -0.484377 1.606958
C 0.179265 -1.668534 -0.733026
C -1.018218 -2.180008 0.044287
C -0.367281 -1.094042 2.174063
C 0.042436 -4.860482 1.545546
C -0.412597 -5.792566 0.641371
C 0.456979 -6.714391 0.055166
C 1.779733 -6.705598 0.425136
C 3.669247 -5.801359 1.752845
C 4.151706 -4.771084 2.481139
C 3.310314 -3.789171 2.960664
C 1.975683 -3.795034 2.713157
C 2.275594 -5.780841 1.351415
C 1.423441 -4.804791 1.899842
C 4.093644 -8.181397 1.856564
C 5.890144 -6.686546 1.381927
S 0.836176 -0.099086 -0.155590
S -1.117726 -3.701239 2.201599
N -1.268535 2.081785 1.178613
N -2.182149 0.758402 -1.231845
N 0.239983 1.595226 -2.582331
N 1.153980 2.890764 -0.164096
N -0.730155 -2.323631 1.466421
N 4.454269 -6.894652 1.267603
O -1.915580 4.365098 -1.620029
O -2.405904 -4.149694 1.748629
O -0.928257 -3.509253 3.603195
H -1.233562 2.821883 4.295549
H 6.625178 2.461360 -3.801283
H 6.707505 4.551222 -4.749126
H 2.885589 5.190197 -3.557931