97
Fe1 H39 C49 N7 O1
H -4.951999 1.029947 0.072913
H -4.860292 -1.420431 0.528405
H -1.638213 0.526722 2.353363
H -3.796847 3.586534 1.303838
H -5.526929 5.154371 1.123435
H -6.361107 5.748632 -0.971628
H -5.509293 4.716894 -2.902236
H -3.759812 3.171816 -2.718843
H 3.444453 -3.870809 1.880927
H -5.877884 -6.247853 1.287891
H 5.126918 -5.486693 2.010498
H -5.867302 -5.175654 -0.776275
Fe 0.009368 -0.134248 -0.444175
H 5.049320 -1.182726 -0.539060
H -4.258908 -3.519310 -1.232764
H 4.931159 1.252479 -1.025450
H 1.038916 4.792757 -1.501873
H -1.426582 4.732067 -1.239741
H 1.784915 1.421907 3.835456
H 1.321091 2.939169 3.618175
H -1.024484 -5.084618 0.352986
H 0.123613 -0.325473 4.441449
H -1.416001 0.069015 4.638796
H 1.449833 -5.016342 0.135705
H 3.571432 2.954341 -3.404573
H -1.084446 -0.962723 2.533766
H 5.192171 4.603100 -3.845114
H 0.693253 1.376389 6.174711
H 5.899370 6.024268 -2.137767
H -0.789926 1.965592 6.308269
H 5.031684 5.789093 0.025072
H 3.432108 4.140335 0.462623
H 0.423423 2.931583 5.910585
C -2.837278 0.904773 -0.239054
C -2.746453 -1.251762 0.145672
C -3.315740 -4.307527 1.792221
H 6.324396 -6.091069 0.096834
C -4.284656 -5.289449 2.054353
H 5.842935 -5.066917 -1.958361
H 4.197506 -3.395400 -2.077965
H 0.123613 2.352494 1.703515
H 1.633246 1.851798 1.541052
C -4.177607 0.479181 0.053976
C -4.130166 -0.856515 0.300161
C -2.499022 2.213665 -0.580922
C -2.286156 -2.566975 0.302154
C 2.901444 -1.117484 -0.448361
C 2.800566 1.026913 -0.875945
C 0.982658 2.687303 -1.078275
C -1.197492 2.636222 -0.850031
C -3.608849 3.222138 -0.687569
C -4.138278 3.818169 0.446676
C -0.948650 -2.935922 0.213448
C -5.169097 4.754826 0.340029
C 1.237144 -2.879784 0.000154
C -5.669427 5.101773 -0.900863
C -5.156046 4.498156 -2.049061
C 4.261877 -0.656742 -0.606836
C -4.120643 3.571108 -1.935437
C 4.197682 0.670356 -0.871958
C -3.305864 -3.634622 0.568273
C 0.509663 4.030839 -1.297549
C -0.832076 3.996195 -1.155021
C -5.218654 -5.590119 1.105495
C -0.485178 -4.308539 0.256306
C -5.218301 -4.948318 -0.120446
C -4.259084 -3.963109 -0.392546
C 0.862381 -4.271366 0.133712
C 2.329335 2.325436 -1.125120
C 0.792366 1.707658 2.043389
C 2.552958 -2.445594 -0.187225
C 1.045971 1.995179 3.511528
C -0.598577 0.268535 4.117522
C 3.344458 3.388531 -1.428117
C -0.857472 -0.006090 2.646393
C 3.866480 3.527108 -2.706883
C 0.054833 2.028559 5.814902
C 4.830458 4.512822 -2.971008
C 5.252838 5.351615 -1.956368
C 4.736988 5.216073 -0.671622
C 3.785002 4.233646 -0.414473
N 0.304205 0.320628 1.775676
N -1.964654 -0.154781 -0.147955
N -0.193833 1.734969 4.343773
C 3.642681 -3.476321 -0.115463
C 3.933497 -4.104973 1.101508
C 4.932394 -5.071469 1.178254
C 5.645237 -5.428784 0.043012
C 5.363415 -4.814799 -1.177945
C 4.373160 -3.828325 -1.250704
N 2.019825 -0.071079 -0.590390
N -0.068971 1.842441 -0.800894
N 0.118322 -2.079681 0.052979
N -0.262613 -0.623109 -2.104178
H -2.662859 -4.100927 2.451040
H -4.290653 -5.742099 2.889588
O -0.969284 -1.347349 -2.694424