117
Fe1 H28 C50 N12 Cl8 O18
N 0.790463 -3.390813 -4.474995
N -4.027095 -3.763240 -1.267141
H -1.557004 -7.027385 -2.819623
H -2.518721 -6.710173 -4.920680
Cl -0.632928 -5.313249 -0.829318
Cl -2.455532 -1.981006 -4.694565
O 0.931268 -4.470201 -3.928090
O 0.687253 -3.187278 -5.673855
O -4.381913 -4.810148 -0.752416
O -4.401666 -3.338847 -2.359278
O -1.395341 1.381009 -0.877678
H -6.647769 0.350774 3.857756
H -6.489691 -1.083718 5.705525
H -4.622086 -2.450003 5.974232
H -1.506637 2.146866 -0.551096
H 0.378452 -2.184758 3.251205
C -1.715429 -6.149368 -3.145034
C -0.812309 2.203163 3.607637
C -2.283747 -5.957742 -4.389938
C -1.731297 1.235287 3.754116
C -1.605789 0.324791 2.626911
C -2.507741 -0.712374 2.319589
C -2.467284 -1.504863 1.152450
C -3.666202 -0.889926 3.244617
C -4.829475 -0.134247 3.078500
C -5.875709 -0.189461 3.980105
C -5.782826 -1.047991 5.071333
C -4.671535 -1.849141 5.240632
C -3.633904 -1.771191 4.335157
H 6.647769 -0.350774 -3.857756
H 6.489691 1.083718 -5.705525
H 4.622086 2.450003 -5.974232
H 1.506637 -2.146866 0.551096
N -0.544986 0.747018 1.871486
H -0.378452 2.184758 -3.251205
N -2.642451 1.224460 4.902156
N -4.649243 -2.963173 1.456525
Cl -4.962886 0.904758 1.694017
Cl -2.224478 -2.756173 4.567346
C 0.812309 -2.203163 -3.607637
H 1.557004 7.027385 2.819623
C 1.731297 -1.235287 -3.754116
H 2.518721 6.710173 4.920680
C 1.605789 -0.324791 -2.626911
C 2.507741 0.712374 -2.319589
O -3.532922 2.063503 4.915102
C 2.467284 1.504863 -1.152450
O -2.409940 0.426558 5.798480
O -4.468977 -3.756744 2.368534
O -5.737338 -2.583168 1.057459
C 3.666202 0.889926 -3.244617
C 4.829475 0.134247 -3.078500
C 5.875709 0.189461 -3.980105
C 5.782826 1.047991 -5.071333
C 4.671535 1.849141 -5.240632
C 3.633904 1.771191 -4.335157
N 0.544986 -0.747018 -1.871486
N 2.642451 -1.224460 -4.902156
N 4.649243 2.963173 -1.456525
Cl 4.962886 -0.904758 -1.694017
Cl 2.224478 2.756173 -4.567346
C 1.715429 6.149368 3.145034
C 2.283747 5.957742 4.389938
O 3.532922 -2.063503 -4.915102
O 2.409940 -0.426558 -5.798480
O 4.468977 3.756744 -2.368534
O 5.737338 2.583168 -1.057459
Fe -0.000000 0.000000 -0.000000
H 2.912087 4.549233 5.727496
H 3.306469 -1.153006 1.410525
H 2.297741 -0.211114 2.221189
H 2.473980 -3.021635 2.603304
H 3.193953 -1.954157 3.552516
H 1.203325 -2.678439 4.530463
H 1.099257 -1.116197 4.200078
C -0.013158 1.891364 2.429258
C 3.468768 2.473821 -0.755035
C 3.131179 2.907958 0.489011
C 1.896381 2.275699 0.860966
C 1.125572 2.571259 2.015263
C 1.572432 3.743753 2.832446
C 1.381363 5.048328 2.378020
C 2.515515 4.678067 4.873029
C 2.158247 3.591101 4.092297
C 2.421282 -1.122693 1.853930
C 2.404278 -2.107891 2.976170
C 1.164435 -2.013701 3.811092
N 1.528933 1.424748 -0.149639
N -0.790463 3.390813 4.474995
N 4.027095 3.763240 1.267141
Cl 0.632928 5.313249 0.829318
Cl 2.455532 1.981006 4.694565
O -0.931268 4.470201 3.928090
O -0.687253 3.187278 5.673855
O 4.381913 4.810148 0.752416
O 4.401666 3.338847 2.359278
O 1.395341 -1.381009 0.877678
H -2.912087 -4.549233 -5.727496
H -3.306469 1.153006 -1.410525
H -2.297741 0.211114 -2.221189
H -2.473980 3.021635 -2.603304
H -3.193953 1.954157 -3.552516
H -1.203325 2.678439 -4.530463
H -1.099257 1.116197 -4.200078
C 0.013158 -1.891364 -2.429258
C -3.468768 -2.473821 0.755035
C -3.131179 -2.907958 -0.489011
C -1.896381 -2.275699 -0.860966
C -1.125572 -2.571259 -2.015263
C -1.572432 -3.743753 -2.832446
C -1.381363 -5.048328 -2.378020
C -2.515515 -4.678067 -4.873029
C -2.158247 -3.591101 -4.092297
C -2.421282 1.122693 -1.853930
C -2.404278 2.107891 -2.976170
C -1.164435 2.013701 -3.811092
N -1.528933 -1.424748 0.149639