144
Fe1 H64 C64 N10 O5
Fe 0.000000 0.000000 -1.679880
N -0.806397 -1.828750 -1.599919
N 0.806397 1.828750 -1.599919
N -1.828750 0.806397 -1.599919
N 1.828750 -0.806397 -1.599919
H -0.871437 -5.034770 -1.515950
H -5.034770 0.871437 -1.515950
N 0.000000 0.000000 -3.412880
H -3.134276 -4.034700 -1.498775
H 3.134276 4.034700 -1.498775
N 0.000000 0.000000 0.235942
H -4.034700 3.134276 -1.498775
H 4.034700 -3.134276 -1.498775
C -1.770050 4.610827 -1.472058
N 1.878754 -4.429655 0.922959
N -1.878754 4.429655 0.922959
N -4.429655 -1.878754 0.922959
N 4.429655 1.878754 0.922959
H 2.694028 -6.940699 0.627160
C -2.054490 5.197825 -0.244969
H -6.940699 -2.694028 0.627160
O 2.367918 -5.893525 2.535540
O -5.893525 -2.367918 2.535540
H 2.965786 -8.127376 -1.334654
C -2.501985 6.529439 -0.206802
H -8.127376 -2.965786 -1.334654
O 0.000000 0.000000 -4.519741
H 2.482056 -7.150859 -3.399522
C -2.657793 7.228763 -1.369005
H -7.150859 -2.482056 -3.399522
H 5.034770 -0.871437 -1.515950
H 1.760992 -4.947807 -3.481582
C -2.376977 6.652636 -2.598002
H -4.947807 -1.760992 -3.481582
H 1.621489 -3.596264 0.797006
C -1.943976 5.351821 -2.641895
H -3.596264 -1.621489 0.797006
H -1.621489 3.596264 0.797006
H 3.596264 1.621489 0.797006
H 6.940699 2.694028 0.627160
O 5.893525 2.367918 2.535540
H 0.949341 -4.860845 4.686285
C -2.054490 4.797435 2.211116
H -4.860845 -0.949341 4.686285
H 8.127376 2.965786 -1.334654
H -0.068845 -4.286530 3.592783
H 0.068845 4.286530 3.592783
H -4.286530 0.068845 3.592783
H 7.150859 2.482056 -3.399522
H 4.286530 -0.068845 3.592783
C 4.797435 2.054490 2.211116
H 0.496411 -3.326318 4.743536
H -0.496411 3.326318 4.743536
H -3.326318 -0.496411 4.743536
H 3.326318 0.496411 4.743536
H 4.947807 1.760992 -3.481582
H 3.543724 -3.996654 4.323692
H -3.543724 3.996654 4.323692
H -3.996654 -3.543724 4.323692
H 3.996654 3.543724 4.323692
H 2.858894 -2.576266 4.594682
H -2.858894 2.576266 4.594682
H -2.576266 -2.858894 4.594682
H 2.576266 2.858894 4.594682
H 4.860845 0.949341 4.686285
H 3.666921 -2.828095 3.237824
H 0.871437 5.034770 -1.515950
H -2.828095 -3.666921 3.237824
H -3.666921 2.828095 3.237824
H 2.828095 3.666921 3.237824
H 1.092467 -1.650477 3.314159
H -1.092467 1.650477 3.314159
H -1.650477 -1.092467 3.314159
H 1.650477 1.092467 3.314159
H 0.369591 -2.521914 2.182490
H -2.694028 6.940699 0.627160
H -2.521914 -0.369591 2.182490
H -0.369591 2.521914 2.182490
H 2.521914 0.369591 2.182490
O -2.367918 5.893525 2.535540
H 1.849766 -1.960281 1.938217
H -2.965786 8.127376 -1.334654
H -1.960281 -1.849766 1.938217
H -1.849766 1.960281 1.938217
H 1.960281 1.849766 1.938217
C 1.241028 -3.197686 -1.546485
C -1.241028 3.197686 -1.546485
C -3.197686 -1.241028 -1.546485
C 3.197686 1.241028 -1.546485
H -2.482056 7.150859 -3.399522
C -0.141314 -3.025572 -1.569385
C 0.141314 3.025572 -1.569385
C -3.025572 0.141314 -1.569385
C 3.025572 -0.141314 -1.569385
H -1.760992 4.947807 -3.481582
C 2.141453 -2.145076 -1.561752
C -2.141453 2.145076 -1.561752
C -2.145076 -2.141453 -1.561752
C 2.145076 2.141453 -1.561752
C -1.079785 -4.107169 -1.531218
C 1.079785 4.107169 -1.531218
C -4.107169 1.079785 -1.531218
C 4.107169 -1.079785 -1.531218
H -0.949341 4.860845 4.686285
C -2.309943 -3.563653 -1.523584
C 2.309943 3.563653 -1.523584
C -3.563653 2.309943 -1.523584
C 3.563653 -2.309943 -1.523584
C 1.770050 -4.610827 -1.472058
C -4.610827 -1.770050 -1.472058
C 2.054490 -5.197825 -0.244969
C -5.197825 -2.054490 -0.244969
C 2.501985 -6.529439 -0.206802
C -6.529439 -2.501985 -0.206802
C 2.657793 -7.228763 -1.369005
C -7.228763 -2.657793 -1.369005
C 2.376977 -6.652636 -2.598002
C -6.652636 -2.376977 -2.598002
C 4.610827 1.770050 -1.472058
C 1.943976 -5.351821 -2.641895
C -5.351821 -1.943976 -2.641895
C 5.197825 2.054490 -0.244969
C 2.054490 -4.797435 2.211116
C -4.797435 -2.054490 2.211116
C 6.529439 2.501985 -0.206802
C 1.864260 -3.703156 3.270267
C -1.864260 3.703156 3.270267
C -3.703156 -1.864260 3.270267
C 7.228763 2.657793 -1.369005
C 3.703156 1.864260 3.270267
C 0.710194 -4.076370 4.150030
C -0.710194 4.076370 4.150030
C -4.076370 -0.710194 4.150030
C 6.652636 2.376977 -2.598002
C 4.076370 0.710194 4.150030
C 3.081736 -3.239355 3.907665
C -3.081736 3.239355 3.907665
C -3.239355 -3.081736 3.907665
C 5.351821 1.943976 -2.641895
C 3.239355 3.081736 3.907665
C 1.228346 -2.317190 2.608059
C -1.228346 2.317190 2.608059
C -2.317190 -1.228346 2.608059
C 2.317190 1.228346 2.608059