87
Co1 H44 C36 N5 O1
H 3.705013 2.461306 -3.495199
H 4.871063 1.373569 -3.619563
H -2.039812 -3.167111 2.246304
H -4.849993 -1.384405 3.797263
H -3.275191 2.712952 0.913442
H -3.676126 -2.467332 3.703227
H -5.659902 -3.412514 2.865983
H -4.613445 -3.280500 1.662271
H -5.806630 -2.224385 1.803966
H -4.720210 2.101797 2.527367
H -5.315925 0.826068 3.288766
H -6.817939 1.599938 1.605616
H 3.338241 -2.718160 -0.714334
H -6.361086 0.096611 1.305761
H -5.707311 1.309301 0.491476
Co -0.020053 -0.025845 -0.014601
H -3.323555 4.598812 -0.480699
H -2.298102 5.722981 -0.971882
H 2.123610 3.180630 -2.001379
H -3.244316 6.319706 1.111102
H -1.660917 6.138570 1.263949
H -2.650636 4.987283 1.769364
H -0.333329 5.852130 -2.083017
H 1.025288 5.066696 -2.387675
H 1.499806 7.029923 -1.182844
H 1.892521 5.760948 -0.289970
H 0.535572 6.556104 0.003705
H 5.287405 -0.868014 -3.174902
H 4.765127 -2.112326 -2.317759
H 5.698710 3.420508 -2.730946
H 6.945155 -1.563290 -1.637105
H 5.911176 2.226238 -1.686506
H 5.943044 -1.284934 -0.420861
C -2.187815 -1.233663 1.737753
H 4.714489 3.268026 -1.478814
C -2.539785 2.129632 0.767202
H 2.399769 -5.706289 1.234197
H 3.428759 -4.588874 0.734837
H 3.297787 -6.281012 -0.882527
H 2.691252 -4.938354 -1.507578
H 1.712134 -6.094759 -0.989683
H 6.489335 -0.066104 -1.303343
C -2.631043 0.845204 1.267133
H -0.847879 -4.971102 2.792748
H 0.444028 -5.821725 2.381884
C -1.457130 2.626375 0.070046
C -3.458188 -0.933100 2.365201
H -1.525787 -6.864331 1.569888
H -0.591022 -6.434517 0.343698
H -1.873905 -5.554421 0.719043
C 2.618978 -2.123481 -0.536656
C -1.581208 -2.470709 1.791109
C -3.741381 0.362892 2.062320
C -1.372618 3.985202 -0.414625
C -4.280295 -1.894042 3.168126
C -5.170066 -2.782836 2.296944
C 1.672165 2.490676 -1.529567
C 1.558336 -2.604463 0.201877
C -0.354388 -2.770863 1.230109
C -4.965545 1.148530 2.420879
C 0.469503 2.809967 -0.933984
C -6.061433 1.027671 1.360897
C 2.272443 1.244727 -1.493960
C 2.710828 -0.838644 -1.036742
C -2.448707 5.021258 -0.290008
C -2.506368 5.675190 1.086638
C 1.487008 -3.952750 0.717532
C 0.286923 -4.058054 1.353480
C -0.161592 4.111076 -1.023134
C 3.523287 0.936182 -2.144853
C 3.809346 -0.362573 -1.850979
N -1.683086 -0.134158 1.079630
C 5.013912 -1.155376 -2.267833
C 0.405015 5.340651 -1.666513
C 6.204682 -1.004020 -1.322753
C 2.544749 -4.997812 0.558099
C 1.149970 6.253392 -0.697320
C 2.563198 -5.635165 -0.830077
C 4.323796 1.889244 -2.975702
C -0.292394 -5.263171 2.027157
C 5.244567 2.781108 -2.143303
C -1.147627 -6.104583 1.080079
N 0.430543 -1.886060 0.527866
N -0.324475 1.913804 -0.248415
N 1.773513 0.149213 -0.828771
N -0.818311 -0.492746 -1.610452
O -0.604804 0.067753 -2.608194