81
Zn1 H24 C48 N8
C 3.272728 3.687775 -0.562251
H -0.089923 -1.828923 -7.466428
C 2.818380 4.977162 -0.691730
H -0.560836 -1.077455 -5.400829
C 3.660817 6.048145 -0.748038
H -2.416092 -4.065531 -1.925926
H 1.900217 5.125999 -0.742965
C 5.009664 5.845111 -0.636670
H -0.837705 -3.418411 -3.706193
C 5.497142 4.541165 -0.533443
H 2.896471 -2.532666 -4.036309
C 4.616842 3.485550 -0.509603
C -0.186945 -1.885546 -2.383326
H 3.393414 -3.218613 -6.248756
N -1.322816 -0.529829 1.461783
C 0.797476 -1.211732 -3.122378
N 0.598699 1.621036 1.100786
N -2.080063 3.163608 9.546972
C 1.500296 -0.083317 -2.687468
H -3.324789 -6.906388 0.864915
C 2.494183 0.639840 -3.457086
H -6.412938 -4.388282 0.485779
C 2.922501 1.676041 -2.714319
H -4.948137 -2.617600 0.455929
C 2.179452 1.639640 -1.463027
C 1.112207 -1.717295 -4.495264
C -2.309604 -2.536710 0.416718
C -1.542891 -2.502737 -0.767469
C -1.788997 -3.380393 -1.887841
C 0.532439 -1.952685 -6.785160
C -0.927628 -3.014770 -2.873129
C 0.243739 -1.519923 -5.550151
C 2.297772 -2.368459 -4.728961
C 2.588839 -2.788278 -6.065796
H 6.412938 4.388283 -0.485779
C 1.703806 -2.563404 -7.069435
C 2.054033 -2.968663 -8.393242
C -3.272728 -3.687775 0.562251
C -2.818380 -4.977162 0.691730
N 1.322816 0.529830 -1.461783
N -0.598699 -1.621036 -1.100786
C -3.660817 -6.048145 0.748038
C -5.009664 -5.845111 0.636670
C -5.497142 -4.541165 0.533443
Zn 0.000000 0.000000 0.000000
C -4.616842 -3.485550 0.509603
H -2.782884 -0.424672 4.315354
C -5.871032 -7.011545 0.588165
H 2.416092 4.065531 1.925926
H 3.324789 6.906388 -0.864915
H 0.837705 3.418411 3.706193
H -2.896471 2.532666 4.036309
N 2.080063 -3.163608 -9.546972
N -6.554921 -7.935309 0.542865
H -3.393414 3.218613 6.248756
H 0.089923 1.828923 7.466428
H 0.560836 1.077455 5.400829
H -3.570894 -2.298894 2.955803
H 4.948137 2.617600 -0.455929
C 0.186945 1.885546 2.383326
C -0.797476 1.211732 3.122378
N 6.554921 7.935309 -0.542865
C -1.500296 0.083317 2.687468
H -1.900217 -5.125999 0.742965
C -2.494183 -0.639840 3.457086
C -2.922501 -1.676041 2.714319
C -2.179452 -1.639640 1.463027
C 2.309604 2.536710 -0.416718
C 1.542891 2.502737 0.767469
C 1.788997 3.380393 1.887841
C 0.927628 3.014770 2.873129
C -1.112207 1.717295 4.495264
C -2.297772 2.368459 4.728961
C -2.588839 2.788278 6.065796
H 2.782884 0.424673 -4.315354
C -1.703806 2.563404 7.069435
H 3.570894 2.298894 -2.955803
C -0.532439 1.952685 6.785160
C -0.243739 1.519923 5.550151
C -2.054033 2.968663 8.393242
C 5.871032 7.011545 -0.588165