93
Zn1 H32 C56 N4
Zn 0.044578 -0.408415 0.096727
H -5.449956 1.902560 -1.581130
H -4.524735 1.732987 -2.876443
H -6.033246 -0.080823 -2.730839
H -4.537057 -0.625971 -2.575905
H -0.411008 1.421474 -5.321800
H -0.317536 0.316105 -7.399566
H -1.086345 -0.609642 -6.344442
C -3.509566 1.431522 -1.121967
C -4.731777 1.353644 -1.985224
C -5.237567 -0.082079 -2.160017
C -2.167389 0.946667 -1.426720
C -1.597930 0.682886 -2.693454
C -2.370334 1.180302 -3.883507
C -2.482736 2.545684 -4.119576
C -3.230940 3.006673 -5.195630
C -3.866765 2.101024 -6.038690
C -3.754362 0.735642 -5.802621
C -3.006136 0.275909 -4.724914
C -0.372432 0.033482 -2.903021
C -0.221794 -0.211458 -6.578135
N -1.416324 0.901448 -0.263054
H 1.111811 1.102424 -5.696178
H 0.436589 -0.922411 -6.723347
H 3.015031 -1.921012 -4.754602
H 2.427301 -0.777959 -5.711591
H 4.560905 -0.136092 -4.910425
H 3.457011 0.882606 -4.361234
H 4.041258 -0.256678 -3.402114
H 3.213030 -4.369153 -0.220433
H -1.436888 2.756709 5.821382
H -0.008337 2.462781 6.481586
H -4.505540 2.977783 1.556276
H -5.444052 2.420074 0.384911
H -5.953346 1.310937 2.422873
H -5.385414 0.250787 1.366903
H -4.439913 0.802216 2.534237
H -5.464646 -0.456398 -1.282952
H -0.362564 3.683712 3.919531
H -0.487533 3.972615 6.248061
C 0.187450 1.707865 3.782968
C 0.135000 3.049381 4.494592
C -0.507727 3.061942 5.886775
C -0.509352 1.288327 2.572642
C 0.412352 -0.045653 -4.142703
C -1.636466 1.878694 1.973515
C 0.247030 0.691679 -5.444903
C -2.313566 3.055661 2.641645
C 1.470072 -0.869655 -3.891066
C -3.049083 2.914978 3.812135
C 2.680368 -0.990241 -4.777648
C 3.783524 -0.040628 -4.323025
C 1.328824 -1.341949 -2.509825
C 2.080228 -2.340549 -1.864655
C -2.167648 1.515681 0.713732
C 2.965627 -3.263784 -2.671104
C -3.493345 1.800816 0.210690
C 2.384110 -4.178225 -3.541116
C -4.709546 2.181415 1.003138
C 3.187344 -4.997203 -4.326100
C -5.162739 1.032082 1.914815
C 4.570935 -4.900483 -4.242732
C 5.152475 -3.984786 -3.373910
C 4.349241 -3.165808 -2.587504
C 2.071177 -2.576696 -0.478743
C 2.765759 -3.639358 0.192264
N 0.265339 -0.703850 -1.926796
C -3.687302 4.016578 4.368598
N 1.471742 -1.750182 0.453693
C -3.589980 5.260119 3.754801
C -2.854463 5.400802 2.584310
C -2.216244 4.299201 2.027848
H 1.864645 1.477998 5.828016
H 2.351221 -0.016762 5.528425
H 4.154751 1.483023 5.243616
H 3.810675 0.797191 3.838698
H 3.325283 2.291952 4.140179
N 0.068492 0.122665 2.096044
H 1.060067 3.389784 4.578811
H 3.029151 -3.934542 2.231404
C 0.998939 -0.279287 3.007429
C 1.112052 0.726850 4.076286
C 2.181480 0.867533 5.117575
C 3.484367 1.407656 4.532594
C 2.662323 -3.403211 1.533522
C 1.892208 -2.197354 1.686649
C 1.734692 -1.486401 2.894481
C 2.487072 -2.042853 4.088882
C 3.876954 -2.055414 4.085726
C 4.571021 -2.433501 5.228940
C 3.875229 -2.797770 6.376963
C 2.485347 -2.785209 6.379266
C 1.791280 -2.407123 5.235483