75
Ni1 H32 C38 N4
H -4.701005 -2.207779 0.806547
H 1.471847 0.703290 -4.655149
H 6.234397 1.827175 -1.056611
H -6.234397 -1.827175 1.056611
H 2.062419 -0.779135 -4.538896
H -4.321258 -0.941857 6.284480
C 6.784769 1.922740 -5.958733
C 2.008599 -2.223775 -0.041305
C -2.008599 2.223775 0.041305
H -5.176344 -0.683984 0.687959
C 3.255741 -2.608103 -0.621710
C -3.255741 2.608103 0.621710
H -6.475340 -2.706977 6.459941
C 3.626321 -1.625703 -1.461972
C -3.626321 1.625703 1.461972
H -2.219555 -0.039991 5.904906
C 2.617897 -0.606760 -1.386503
C -2.617897 0.606760 1.386503
H -6.832826 -1.947148 3.297078
H -1.471847 -0.703290 4.655149
C -2.673288 -0.587868 2.077137
C 2.673288 0.587868 -2.077137
H -2.062419 0.779135 4.538896
C 1.729027 1.574818 -1.898950
C -6.784769 -1.922740 5.958733
C -1.729027 -1.574818 1.898950
C 1.804191 2.871216 -2.530934
H 6.940203 1.179045 -6.578874
C -1.804191 -2.871216 2.530934
H 6.832826 1.947148 -3.297078
C 0.705020 3.551477 -2.166387
C -2.202009 -0.110044 4.926903
C -0.705020 -3.551477 2.166387
C 0.056569 -2.688223 1.315908
C -0.056569 2.688223 -1.315908
C 4.500394 1.033560 -5.355672
C 1.276474 -3.027181 0.796077
C -1.276474 3.027181 -0.796077
H -7.619819 -2.140208 5.494999
C 3.772328 0.845465 -3.066999
C -3.772328 -0.845465 3.066999
C 5.016457 1.323564 -2.637335
C -5.016457 -1.323564 2.637335
C 5.982455 1.641837 -3.588879
C -5.982455 -1.641837 3.588879
C 2.202009 0.110044 -4.926903
C 5.739024 1.525863 -4.950916
H 7.619819 2.140208 -5.494999
C -5.739024 -1.525864 4.950916
H -6.940203 -1.179045 6.578874
C 3.516719 0.671987 -4.438825
C -3.516719 -0.671987 4.438825
Ni -0.000000 -0.000000 -0.000000
H 3.734615 -3.408888 -0.446156
C 5.307684 1.528759 -1.167741
C -5.307684 -1.528759 1.167741
H -3.734615 3.408888 0.446156
H 4.406374 -1.609293 -2.003409
H 4.321258 0.941857 -6.284480
H -4.406374 1.609293 2.003409
H 2.499783 3.184111 -3.098009
H -2.499783 -3.184111 3.098009
N 1.617329 -0.977849 -0.498823
H 0.476648 4.436243 -2.424449
N -1.617329 0.977849 0.498823
H -0.476648 -4.436243 2.424449
C -4.500394 -1.033561 5.355672
N -0.582584 -1.479115 1.129690
N 0.582584 1.479115 -1.129690
H -1.639459 3.873611 -1.030131
H 1.639459 -3.873611 1.030131
H 6.475340 2.706977 -6.459941
H 5.176344 0.683984 -0.687959
H 2.219555 0.039991 -5.904906
H 4.701005 2.207779 -0.806547