116
Co1 H47 Pd1 C63 N4
Co -0.983736 -3.204022 2.656403
H 2.879357 -3.506866 -2.796513
H 1.196944 -4.017078 -1.115820
H -2.861379 -1.230309 1.047866
H -3.732345 0.997018 0.678002
H -2.889930 3.103505 -0.591604
H -2.087410 5.248780 -1.825688
H -0.339389 5.796287 -3.428406
H 3.488585 -1.418282 -4.219708
H 1.260577 -3.606820 1.140758
H 0.180591 -5.620813 2.268026
C 2.969263 6.761512 -5.395707
H -2.355832 -5.450742 1.930907
C 2.634316 5.705285 -4.621241
H -2.863938 -3.375584 0.596252
H -0.479759 0.118320 1.988256
H 0.909437 1.971193 1.633538
H 2.660301 2.323269 3.017249
H 3.032923 1.001493 4.809463
H 1.688071 -0.857347 5.205219
H 2.328643 -2.938473 3.640530
H 4.051451 -5.583517 6.051975
H 0.094937 -4.919645 6.303512
H -1.565406 -5.966921 4.540421
H -2.879332 -7.458767 5.636272
H -3.784157 -2.951900 5.996427
H -4.361889 -2.498378 3.275163
H -6.153921 -1.070681 3.032251
H -5.939245 1.159629 3.501675
H -3.915786 1.989095 4.160845
H -2.096051 0.607646 4.328540
H 0.419111 4.449150 -6.543744
H 1.001949 6.234890 -7.831534
Pd 0.378105 0.869465 -2.308367
C 2.073064 -1.562991 -2.835926
C 2.244394 -2.917587 -2.459092
C 1.326071 -3.193579 -1.526980
C 0.572436 -2.000102 -1.270218
C -0.491686 -1.865836 -0.366240
C -1.301356 -0.736508 -0.312324
C -2.490713 -0.582848 0.491754
C -2.961159 0.638974 0.300860
C -2.064972 1.308813 -0.592922
C -2.174374 2.630589 -0.949998
C -1.317867 3.337724 -1.801744
C -1.443505 4.660992 -2.150919
C -0.490550 4.966821 -3.036378
C 0.252711 3.765884 -3.261949
C 1.283633 3.607749 -4.182097
C 1.987577 2.457535 -4.392863
C 3.034648 2.266579 -5.339628
H 3.624936 7.344824 -5.088597
C 2.703543 0.385361 -4.201593
C 2.828261 -0.915529 -3.800865
H 2.269376 9.112661 -9.201173
C -0.735335 -3.016049 0.556412
C 0.300307 -3.797776 1.177157
H 2.990652 9.414014 -5.777411
H 3.046964 10.234530 -7.112552
C -0.290727 -4.895775 1.808409
C -1.691762 -4.806265 1.606039
C -1.969559 -3.682904 0.856664
H 4.416425 7.276199 -8.344544
H 4.576289 8.835178 -8.291893
C -0.397637 -1.731569 3.893967
C -0.174155 -3.066772 4.457076
H 4.802996 7.980350 -6.997077
C -1.627261 -3.284581 4.518537
C -1.842304 -1.952363 3.969892
C 0.463506 -0.585831 3.621647
C 0.234585 0.276456 2.563024
C 1.069106 1.392357 2.344499
C 2.092759 1.604199 3.176030
C 2.328076 0.809045 4.233568
C 1.518733 -0.306856 4.476813
C 1.021152 -3.812695 4.896697
C 2.253178 -3.569524 4.319554
C 3.370119 -4.255773 4.746533
C 3.287667 -5.149389 5.750839
C 2.054913 -5.419413 6.335299
C 0.919083 -4.745099 5.908918
C -2.483674 -4.255773 5.170762
C -2.267017 -5.655125 5.063429
C -3.060165 -6.548741 5.708845
C -4.118218 -6.129532 6.460108
C -3.579002 -3.855958 5.925661
C -3.005940 -1.084108 3.821949
C -4.256398 -1.589844 3.440569
C -5.332276 -0.735016 3.310512
C -5.205635 0.592727 3.581878
C -4.004538 1.083545 3.967976
C -2.916777 0.249603 4.075735
C 1.662637 4.811669 -5.019494
C 1.070923 5.035446 -6.237031
C 1.426694 6.114050 -7.012175
C 2.377635 7.016617 -6.632247
N 1.038746 -1.013991 -2.106757
N -1.069065 0.445034 -0.986613
N -0.257366 2.797676 -2.477737
N 1.779244 1.268534 -3.717823
C 2.809989 8.199652 -7.453163
H 1.991534 -6.054940 7.011670
C 2.611460 9.512476 -6.655363
C 4.288107 8.059418 -7.803722
H -4.659608 -6.751632 6.891017
H -5.093324 -4.516846 7.101959
H 3.349590 2.903597 -5.938757
H 4.178200 0.652401 -5.707493
H 4.190179 -4.100621 4.336155
H 1.087164 8.314524 -8.549840
H 2.229174 7.549207 -9.302300
H 1.673323 9.701941 -6.577731
H 3.066784 5.578478 -3.807374
C 3.483917 1.032822 -5.220392
C -4.377252 -4.801789 6.579258
C 2.027099 8.304081 -8.744837