89
Zn1 H36 C48 N4
H -4.734372 -4.922221 3.775662
H -4.800428 -7.821841 3.001485
H -0.917243 -5.349154 1.138183
Zn 0.000000 0.000000 0.000000
H -2.547898 -4.407310 -0.743287
H 2.547898 4.407310 0.743287
H -1.944895 -7.243954 2.015967
H 0.438805 0.588074 -5.103369
H -0.438805 -0.588073 5.103369
H -2.101544 -3.566411 -3.037762
H 2.101544 3.566411 3.037762
H 1.534401 2.613454 -4.184459
H -1.534401 -2.613454 4.184459
H -3.746354 -3.032977 2.862671
H 3.746354 3.032978 -2.862671
H -2.735687 -0.825155 -4.779334
H 2.735687 0.825155 4.779334
H -3.161281 -1.662349 -6.917932
H -4.443723 -7.302298 4.473506
H 3.161281 1.662350 6.917932
H 0.808722 -2.758852 -4.740467
H -3.402859 -8.218211 3.673266
H -0.808722 2.758852 4.740467
H 0.372748 -3.601603 -6.862581
H 0.917243 5.349154 -1.138183
H -0.372748 3.601603 6.862581
H 1.944895 7.243954 -2.015967
H -1.920360 -4.188750 -8.460288
H 1.920360 4.188750 8.460288
H -0.915356 -3.102435 -9.069550
H 0.915356 3.102435 9.069550
H -2.467686 -2.751443 -8.901971
H 2.467686 2.751443 8.901971
C -1.569599 -2.770613 1.346914
C 1.569599 2.770613 -1.346914
C -1.491464 -2.671428 -0.054151
C 1.491464 2.671428 0.054151
C -2.222522 -3.989639 1.910271
C 2.222522 3.989639 -1.910271
C -1.088236 -1.936568 -2.089824
H 4.443723 7.302299 -4.473506
C 1.088236 1.936568 2.089824
C 1.082668 1.808673 -2.241489
H 3.402859 8.218211 -3.673266
C -1.082668 -1.808673 2.241489
C -0.626122 -1.170590 -3.170095
C 0.626122 1.170590 3.170095
C -2.077575 -3.613642 -0.972878
C 2.077575 3.613642 0.972878
C -0.914601 -1.703376 -4.542085
C -1.699259 -5.256544 1.670128
C 0.914601 1.703376 4.542085
C 0.542608 0.805707 -4.184446
C -2.308207 -6.386386 2.200318
C -0.542608 -0.805707 4.184446
C -1.831939 -3.157075 -2.223732
C 1.831939 3.157075 2.223732
C 0.087100 0.022967 -3.064983
C -3.959622 -5.016684 3.234042
C -0.087100 -0.022967 3.064983
C 1.143723 1.906840 -3.683730
C -1.143723 -1.906840 3.683730
H 4.734372 4.922222 -3.775662
C -3.367377 -3.887768 2.695376
C 3.367377 3.887768 -2.695376
C -3.445324 -6.279884 2.998797
C -1.440034 -2.703286 -7.119108
C 1.440034 2.703286 7.119108
C -2.095882 -1.386372 -5.200562
C -4.078524 -7.513449 3.588175
C 2.095882 1.386372 5.200562
C -2.348784 -1.887392 -6.481201
C 2.348784 1.887392 6.481201
C -0.003775 -2.531031 -5.178878
C 1.699259 5.256544 -1.670128
C 0.003775 2.531031 5.178878
C 2.308207 6.386386 -2.200318
C -0.261395 -3.030199 -6.446315
C 0.261395 3.030199 6.446315
H 4.800428 7.821841 -3.001485
C -1.709923 -3.233015 -8.510039
C 3.959622 5.016684 -3.234042
C 1.709923 3.233015 8.510039
N -0.892802 -1.649569 -0.757111
N 0.892802 1.649569 0.757111
N 0.442202 0.642806 -1.889247
N -0.442202 -0.642806 1.889247
C 3.445324 6.279884 -2.998797
C 4.078524 7.513449 -3.588175