107
Fe1 H16 C54 Br8 N8 F20
H 0.717755 0.549798 -4.877239
C 1.416574 3.191653 -4.138835
F -3.748228 6.939075 -1.480877
F -6.041108 6.638832 -0.056783
H 0.387815 4.802301 -4.882339
H -0.460261 3.445597 -4.925760
H -0.254870 4.217249 -3.538988
N 1.140732 1.951399 -3.410014
H 1.294231 2.502779 -1.444360
C 0.778462 0.757443 -3.952889
C 0.951696 2.456480 1.528692
C 0.163343 3.982947 -4.393760
C 2.746339 -1.317599 0.496988
C 2.772805 0.844429 1.014774
C 4.126264 -0.931773 0.681617
C 4.157151 0.385647 0.968934
C 2.244260 -2.608362 0.353461
C 2.316277 2.077669 1.503642
C 3.118441 -3.770048 0.686914
C 3.747307 -4.536088 -0.272208
C 4.493637 -5.664103 0.058395
C 4.602807 -6.034495 1.366402
C 4.002119 -5.296516 2.361550
C 3.272455 -4.182531 1.995936
C 3.329881 3.052756 1.985368
C 3.831635 4.018022 1.124073
C 4.834047 4.883675 1.493557
C 5.350203 4.813525 2.780613
C 4.866967 3.887543 3.653171
C 3.863629 3.017681 3.257711
C 1.084172 1.815307 -2.066124
Fe 0.049370 -0.015051 0.050087
H 0.259673 -0.997714 -2.987175
H -2.705589 -0.415468 1.570797
H -0.748463 -2.814603 4.110145
Br 1.121441 4.718401 3.492708
H 0.899893 -1.626259 2.688832
H -4.129520 -1.577154 3.556319
H -3.357508 -2.719199 4.368765
H -4.853052 -3.677450 2.865216
H -4.128928 -2.931052 1.648079
Br 5.676261 -1.950213 0.408789
H -3.356795 -4.074500 2.458706
Br 5.762190 1.321450 1.204727
C -1.142479 2.661318 0.785773
C -2.373747 1.446317 -0.944529
C -2.331255 -0.663799 -1.673823
N 1.934594 -0.207823 0.648026
C -1.107904 -2.619586 -0.883092
C 0.910308 -2.884753 0.027542
C 0.385149 3.620972 2.163287
C -0.880406 3.747243 1.723380
C -3.269596 1.348107 -2.090975
C -3.229995 0.079792 -2.519381
C -0.962070 -4.029604 -0.553859
C 0.257432 -4.189546 -0.002836
C -2.194198 2.518212 -0.083329
C -2.131437 -2.027518 -1.619959
F 3.681050 -4.185337 -1.563874
C -3.241881 3.615360 -0.116324
F 5.110306 -6.378231 -0.907634
C -3.033226 4.798092 -0.797816
F 5.295234 -7.149883 1.691843
F 4.092771 -5.661297 3.643440
F 2.643830 -3.509090 2.981130
C -5.379486 4.489431 0.593207
F 3.354325 4.100799 -0.132992
C -4.436346 3.469448 0.555433
C -3.014854 -2.898783 -2.435219
C -2.589276 -3.398252 -3.650449
F 5.343714 3.841244 4.908308
C -3.354501 -4.190949 -4.479535
F 3.411914 2.129580 4.143023
C -4.651821 -4.458923 -4.066367
C -5.140801 -3.986111 -2.858513
C -4.308833 -3.235504 -2.074178
C 0.520094 -0.087165 -2.910704
C -2.003173 -0.868638 2.024305
C -0.941805 -2.184655 3.424547
C -0.043416 -1.532258 2.637324
C -3.469938 -2.310925 3.473880
C -3.997416 -3.336520 2.530152
Br -2.051406 5.066346 2.350790
Br -4.191461 2.716596 -2.988589
Br -4.117917 -0.495158 -4.077011
Br -2.252438 -5.376627 -0.667188
Br 0.806653 -5.842705 0.695673
N -0.016336 1.834949 0.767253
N -1.746535 0.235526 -0.785149
N 0.021513 -1.957368 -0.452379
N 0.698191 0.597501 -1.731863
N -0.708713 -0.717113 1.755177
N -2.183325 -1.753933 3.032350
F -1.905544 4.956631 -1.504047
F -6.517875 4.350534 1.297491
F -4.695038 2.344239 1.238703
H 1.845173 2.971382 -5.004872
F -1.346221 -3.068547 -4.101122
H 2.050564 3.743034 -3.616570
F -2.887138 -4.637104 -5.625688
F -5.443856 -5.209530 -4.873785
F -6.385225 -4.284950 -2.483449
F -4.799625 -2.786543 -0.896085
C -3.962518 5.806851 -0.797279
C -5.141243 5.642700 -0.085559
F 5.346105 5.759149 0.616591
F 6.337600 5.644103 3.149259