97
Fe1 H50 C40 N6
C -2.168823 5.232506 -0.387340
C -1.655930 5.917206 0.888930
C 3.146981 4.619135 -1.062602
C 3.169603 5.416444 0.242322
C -5.143930 -1.308410 3.125979
H 4.363721 -0.421697 -0.264573
Fe -0.022377 -0.050645 -0.321734
H -4.262930 0.554177 0.721107
H -0.357247 -4.251908 0.894923
H 0.393048 4.272022 -0.929560
H 3.086521 -5.509918 0.506304
H -5.207870 2.551114 0.009886
H -4.844512 4.105916 -0.106104
H 3.265407 -4.973737 2.767224
H -4.613044 2.602411 2.313553
H -5.803772 3.625918 2.005193
H -4.309662 4.168206 2.187584
H 5.240419 -2.610389 -0.240950
H -5.386406 -2.840007 1.747904
H 4.909874 -4.050383 0.376718
H -5.543020 -1.389021 1.091452
H 5.183799 -1.655279 1.925478
H 6.255403 -2.842449 1.890538
H 4.818853 -3.080616 2.553759
H 5.513711 2.994471 -1.125882
H -2.512359 -5.092210 1.230055
H 5.557465 1.395699 -1.178625
H -3.953976 -4.631754 1.751742
H 5.442554 2.912639 1.241464
H -1.544986 -4.452213 3.293079
H 6.752984 2.173711 0.695873
H 5.494852 1.313868 1.184231
H 1.491084 -5.549002 0.608776
H 2.338709 -6.273273 2.637561
H 1.675028 -4.839387 2.893169
H -1.382606 -0.890702 -5.154099
H -0.377986 -3.037868 -4.501912
H 0.406888 -2.699549 -2.179798
H -2.108699 1.372493 -2.881701
H -1.608687 1.425012 -4.401879
H -0.616345 1.843942 -3.218620
C -0.964488 2.903357 -0.386080
C -2.628623 1.566569 0.163454
C -2.823258 -0.846733 0.772014
C -1.438072 -2.561290 0.821699
C 1.021426 -2.860892 0.478803
C 2.697752 -1.494181 0.072690
C 2.911650 0.939030 -0.453178
C 1.499117 2.617068 -0.694197
C -2.161445 3.734376 -0.275111
C -3.183963 2.905433 0.058651
C -3.583709 -1.983339 1.261285
C -2.730028 -3.050448 1.284038
C 2.243757 -3.643545 0.572189
C 3.283135 -2.794572 0.355977
C 3.705140 2.130841 -0.694606
C 4.753798 -3.077929 0.483074
C 2.830747 3.166562 -0.858671
C 5.302059 -2.623824 1.833896
C 5.205648 2.170780 -0.671618
C -3.332576 0.438757 0.567400
C 5.774243 2.139513 0.737183
C -0.265612 -3.318050 0.746095
C 3.419150 -0.331438 -0.220147
C 0.316454 3.354774 -0.693533
C -4.614274 3.263172 0.358830
C -4.856870 3.429278 1.848684
C -5.012393 -1.923980 1.733391
C -2.985353 -4.437312 1.801977
H -3.091943 5.538581 -0.571788
C -2.512657 -4.597556 3.248348
H -1.600730 5.503162 -1.152073
C 2.302939 -5.095019 0.947081
H -2.243164 5.690031 1.640200
C 2.405305 -5.314499 2.443370
H -1.652583 6.888194 0.759820
H -0.745559 5.609421 1.082066
C -0.878447 -0.156660 -3.373390
C -0.447213 -2.241536 -3.988483
C -0.016143 -2.044896 -2.721378
C -1.342174 1.238143 -3.477062
N -1.280670 1.590019 -0.132982
N -1.530949 -1.225480 0.514495
N 1.322278 -1.561234 0.138323
N 1.574302 1.262448 -0.465816
N -0.290336 -0.725818 -2.328977
N -1.004257 -1.048259 -4.375184
H 2.471570 5.013393 -1.668784
H 4.029765 4.697058 -1.503522
H 2.299722 5.340720 0.685597
H 3.355260 6.358120 0.045101
H 3.868337 5.061026 0.830002
H -4.608703 -1.825049 3.764100
H -6.084728 -1.323067 3.401125
H -4.824177 -0.382613 3.104977
H -2.722901 -5.501368 3.561735
H -2.967866 -3.940460 3.814582