287
Zn3 B2 H132 C130 N16 O4
Zn -3.163414 2.208130 -9.119125
C 1.194108 -6.270506 5.613051
C 0.996303 -7.109781 6.655101
B -4.687843 3.129016 -11.696307
C 1.561805 -6.871006 7.934681
C 0.468420 -6.557392 4.299351
H -2.622425 0.645048 -4.988420
C 0.839759 -7.965093 3.761569
N -3.474319 4.178555 -9.685302
C 7.665831 -2.298651 12.108613
N -4.106565 4.235576 -11.004359
C 7.027517 -1.960090 10.817908
N -5.323730 1.944053 -9.374049
C 7.380653 -1.437993 9.621167
N -5.713271 2.293305 -10.683578
C 6.419542 -1.495014 8.641435
N -2.855422 1.480759 -11.006428
C 6.360079 -1.056667 7.367873
N -3.596885 2.111551 -12.014945
C 0.798499 -1.792591 -9.322124
C 6.985044 0.160371 7.000079
C 1.236581 -1.158235 -10.547220
C 6.943784 0.611192 5.717243
N -1.359147 1.092305 -1.030905
C 0.339787 -0.349252 -11.270154
C 6.304257 -0.092659 4.750480
O -1.107947 2.491096 -8.621057
H 1.236581 1.972563 -4.967130
C 1.647966 -2.683541 -8.465541
O -3.122397 1.261585 -7.413273
C 5.702349 -1.338207 5.111808
C 1.843343 -2.172136 -7.065122
C 5.749676 -1.787246 6.369738
H -3.737654 3.259095 -1.363326
C -1.236581 1.158235 10.547220
C 6.237513 0.399146 3.253980
H 2.274144 1.218820 -8.299597
C 1.058193 -4.096588 -8.395141
H -2.532624 2.763727 -3.408829
C -0.339787 0.349252 11.270154
C 6.817578 -0.629011 2.354728
H 1.089745 1.903069 -9.129510
H -5.244851 1.418392 0.425550
H -1.236581 -1.972563 4.967130
C -1.647966 2.683541 8.465541
H 2.571457 2.503569 -9.206574
C -1.843343 2.172136 7.065122
C 4.777644 0.691377 2.835618
H 3.532568 3.385610 -7.214159
C 3.672123 -2.261231 14.512681
H -2.274144 -1.218820 8.299597
C -1.058193 4.096588 8.395141
H 2.655190 3.565582 -5.886716
C 2.997404 -1.765863 13.175079
H -1.089745 -1.903069 9.129510
H 3.044732 2.099078 -6.395883
C 1.874895 -1.008555 12.970844
H -2.571457 -2.503570 9.206574
H 1.571514 4.561664 -8.793084
C 1.879749 -0.791164 11.613075
H -5.713271 5.996093 -12.516052
H -3.532568 -3.385610 7.214159
H 0.242705 4.463659 -7.909378
N 0.883445 -0.427656 -1.751912
H -4.453633 6.944064 -12.794795
H -2.655190 -3.565582 5.886716
H 1.592143 5.033867 -7.262985
C 0.963538 0.060585 10.823795
H -4.458487 5.440141 -13.338389
H -3.044732 -2.099078 6.395883
H 1.440453 -0.465076 -4.904290
C 1.351866 0.657521 9.649998
H -3.297145 7.232732 -10.376754
H -1.571514 -4.561664 8.793084
H 3.026529 -1.817538 -3.582786
C 0.514534 1.493232 8.864159
H -3.124824 4.117971 -7.020282
N -0.883445 0.427656 1.751912
Zn 3.163414 -2.208130 9.119125
H -0.242705 -4.463660 7.909378
H -2.181916 4.554536 -5.032370
Zn -0.000000 -0.000000 -0.000000
H -1.592143 -5.033868 7.262985
B 4.687843 -3.129016 11.696307
H -0.461139 7.884907 -6.525452
H -1.440453 0.465076 4.904290
H -1.410115 7.453688 -8.671016
H -3.026529 1.817538 3.582786
H 7.111250 -2.706706 -1.004256
H 2.622425 -0.645048 4.988420
H -0.765734 5.880270 -3.623156
H 6.830926 -4.722035 -2.159317
H -1.147994 8.526391 -4.503076
H 4.682989 -5.449050 -2.738957
N 3.474319 -4.178556 9.685302
H -1.554524 7.884907 -3.096112
H 2.816589 -4.160737 -2.160251
N 4.106565 -4.235576 11.004359
H -0.052182 8.376712 -3.348105
H -7.111250 2.706706 1.004256
N 5.323730 -1.944053 9.374049
H -6.830926 4.722035 2.159317
N 5.713271 -2.293305 10.683578
H -4.682989 5.449050 2.738957
N 2.855422 -1.480759 11.006428
H -2.816589 4.160736 2.160251
N 3.596885 -2.111552 12.014945
H -7.256873 1.769427 -12.823551
H -8.624515 2.099078 -12.062202
N 1.359147 -1.092305 1.030905
H -7.539624 3.251967 -12.293933
O 1.107947 -2.491096 8.621057
H -8.237401 1.056667 -9.467557
O 3.122397 -1.261585 7.413273
H -7.440115 -0.671776 -7.656898
H 3.737654 -3.259095 1.363326
H -7.368517 -1.430866 -5.496246
H 2.532624 -2.763727 3.408829
H -5.263053 1.854958 -4.446032
H -5.356495 2.624739 -6.579711
H 5.244851 -1.418392 -0.425550
H -6.771464 -1.241984 -3.166784
H 1.400407 6.762310 -3.493686
H -6.207175 1.393446 -2.293496
H 1.321528 5.614767 -4.602812
H -7.680393 0.926588 -2.710109
H 1.340944 7.152547 -5.042808
H -6.948638 0.245902 -1.462649
H 5.713271 -5.996094 12.516052
H -4.612605 -0.318960 -1.944453
H -1.400407 -6.762311 3.493686
H 4.453633 -6.944064 12.794795
H -4.629594 -1.660731 -2.817130
H -1.321528 -5.614767 4.602812
H 4.458487 -5.440141 13.338389
H -4.164814 -0.279758 -3.480826
H -1.340944 -7.152547 5.042808
H 3.297145 -7.232732 10.376754
H -3.616301 3.237712 -14.564775
H 3.124824 -4.117971 7.020282
H -3.206130 1.867431 -15.279871
H 2.181916 -4.554536 5.032370
H -4.612605 1.985037 -14.523767
H 0.461139 -7.884908 6.525452
H -1.245076 0.705632 -13.614834
H 1.410115 -7.453688 8.671016
H -2.236525 -0.498932 -9.341173
H 0.765734 -5.880270 3.623156
H -0.827623 -1.847830 -8.041228
H 1.147994 -8.526392 4.503076
H 1.554524 -7.884908 3.096112
H 0.052182 -8.376712 3.348105
H 7.256873 -1.769427 12.823551
H 8.624515 -2.099078 12.062202
H 7.539624 -3.251968 12.293933
H 8.237401 -1.056667 9.467557
H -5.159904 3.426594 -12.526569
H 7.440115 0.671776 7.656898
C -0.912570 2.097296 -7.458309
H 7.368517 1.430866 5.496246
H 2.123667 -1.286532 -10.859808
H 5.263053 -1.854958 4.446032
H 0.632246 0.017819 -12.097271
H 5.356495 -2.624739 6.579711
C -0.694136 1.252676 -4.703778
H 2.548400 -2.751254 -8.896992
H 6.771464 1.241984 3.166784
C -1.889457 1.051321 -5.435814
H 1.935571 -1.195655 -7.084098
H 6.207175 -1.393446 2.293496
C -2.055710 1.413047 -6.760826
H -2.123667 1.286532 10.859808
H 1.069115 -2.418038 -6.515876
H 7.680393 -0.926588 2.710109
H -0.632246 -0.017819 12.097271
H 2.653977 -2.569500 -6.682236
H 6.948638 -0.245902 1.462649
H -2.548400 2.751254 8.896992
H 0.213580 -4.073423 -7.898672
H 4.612605 0.318960 1.944453
H -1.935571 1.195655 7.084098
H 0.894367 -4.428022 -9.303687
H 4.629594 1.660731 2.817130
H -1.069115 2.418038 6.515876
H 1.689225 -4.691743 -7.940496
H 4.164814 0.279758 3.480826
C -0.564289 0.885604 -3.308550
H -2.653977 2.569500 6.682236
H 3.616301 -3.237712 14.564775
H -0.213580 4.073423 7.898672
H 3.206130 -1.867431 15.279871
H -0.894367 4.428021 9.303687
C 0.351922 2.280832 -6.718115
H 4.612605 -1.985037 14.523767
H -1.689225 4.691743 7.940496
C 0.413812 1.860304 -5.427650
H 1.245076 -0.705632 13.614834
H 2.236525 0.498932 9.341173
C -0.798499 1.792591 9.322124
H 0.827623 1.847830 8.041228
C -2.342101 1.833575 -0.567973
C -0.351922 -2.280832 6.718115
C -3.011966 2.660377 -1.496316
C -0.413812 -1.860304 5.427650
C 1.612773 2.961518 -7.462025
C -2.379720 2.382400 -2.553964
C 1.912514 2.070568 -8.624212
C -1.407688 1.411265 -2.243897
C 2.804454 3.006065 -6.677844
C 1.219592 4.383474 -7.896173
C -1.612773 -2.961518 7.462025
C -1.912514 -2.070568 8.624212
C 0.504826 0.053457 -3.011204
C -2.804454 -3.006065 6.677844
C 1.441666 -0.570208 -3.960656
C -1.219592 -4.383474 7.896173
C 2.295987 -1.311478 -3.245934
C 1.893097 -1.199219 -1.832558
H 5.159904 -3.426594 12.526569
C -4.737598 6.024604 -12.606023
C -0.504826 -0.053457 3.011204
C 2.643055 -1.897724 -0.825155
C 0.912570 -2.097296 7.458309
C -4.129622 5.575565 -11.369899
C -1.441666 0.570208 3.960656
C -3.468251 6.299016 -10.368109
C -2.295987 1.311478 3.245934
C -3.100554 5.408066 -9.341611
C -1.893097 1.199219 1.832558
C 0.694136 -1.252676 4.703778
C -2.388215 5.675351 -8.050273
C -2.643055 1.897723 0.825155
C 1.889457 -1.051321 5.435814
C -2.570244 4.885970 -6.937957
C 3.855366 -2.669286 -1.238920
C 2.055710 -1.413047 6.760826
C -2.022944 5.135436 -5.769659
C 5.130779 -2.236285 -0.896275
C -1.194108 6.270506 -5.613051
C 6.239940 -3.002502 -1.237966
C -0.996303 7.109781 -6.655101
C 6.072474 -4.199938 -1.925587
C -1.561805 6.871006 -7.934681
C -3.855366 2.669286 1.238920
C 4.797060 -4.631158 -2.268231
C -0.468420 6.557392 -4.299351
C -5.130779 2.236284 0.896275
C 0.564289 -0.885604 3.308550
C 3.687899 -3.866723 -1.926540
C -0.839759 7.965093 -3.761569
C -6.239940 3.002501 1.237966
C -6.072474 4.199938 1.925587
C -7.665831 2.298651 -12.108613
C -4.797060 4.631158 2.268231
C -7.027517 1.960090 -10.817908
C -3.687899 3.866723 1.926540
C -7.380653 1.437993 -9.621167
C -6.419542 1.495014 -8.641435
C 2.342101 -1.833575 0.567973
C -6.360079 1.056667 -7.367873
C 3.011966 -2.660377 1.496316
C -6.985044 -0.160371 -7.000079
C 2.379720 -2.382400 2.553964
C -6.943784 -0.611192 -5.717243
C 1.407688 -1.411265 2.243897
C -6.304257 0.092659 -4.750480
C -5.702349 1.338207 -5.111808
C -5.749676 1.787246 -6.369738
C -6.237513 -0.399146 -3.253980
C 1.031495 6.518190 -4.365022
C -6.817578 0.629011 -2.354728
C -4.777644 -0.691377 -2.835618
C -3.672123 2.261231 -14.512681
C 4.737598 -6.024604 12.606023
C -2.997404 1.765863 -13.175079
C -1.031495 -6.518190 4.365022
C 4.129622 -5.575565 11.369899
C -1.874895 1.008555 -12.970844
C 3.468251 -6.299017 10.368109
C -1.879749 0.791164 -11.613075
C 3.100554 -5.408067 9.341611
C -0.963538 -0.060585 -10.823795
C 2.388215 -5.675352 8.050273
C -1.351866 -0.657521 -9.649998
C 2.570244 -4.885970 6.937957
C -0.514534 -1.493232 -8.864159
C 2.022944 -5.135436 5.769659