99
Zn1 H36 C52 N6 O4
H -4.883501 -2.058929 -2.777840
H -6.954090 -2.169266 -3.428715
H -8.493759 -0.704138 -2.311695
H -7.802088 0.779078 -0.629522
H -5.558950 0.874944 -0.013863
H -1.495935 -0.020412 -4.829416
H 0.850438 2.072370 1.771226
H 1.112948 4.890480 -1.940256
H -1.146412 3.573674 -1.515616
H -0.245323 -4.408561 0.837858
H -0.295465 -3.364883 1.897537
H -1.588846 -4.072124 1.383300
C -2.181707 -0.637213 2.422643
C -1.091846 -0.601037 3.324887
C 0.285598 -0.591993 2.984823
C 1.834115 -0.778299 -7.474199
H 0.667565 -2.529217 -7.598552
H 0.062906 -2.357381 -5.336644
C 0.730981 -0.792769 -3.349576
C -0.630240 -0.586566 -3.036720
H 3.364935 -0.163307 3.561937
C -1.641938 -0.183204 -3.977353
H 4.743853 -1.536186 -1.411016
C -2.805538 -0.096381 -3.317103
H 3.558131 -1.389673 -3.567512
C -2.543028 -0.418348 -1.937979
C -3.523755 -0.481656 -0.933502
C -3.308438 -0.579331 0.451584
C -4.135788 -1.187088 1.438362
C -3.467714 -1.223264 2.622004
C -1.473813 -0.651683 4.763623
C -2.435369 0.234629 5.249070
C -2.836509 0.216541 6.581202
C -2.259870 -0.709565 7.412421
H 4.516737 -2.398984 2.710287
C -1.321911 -1.597685 6.960146
C -0.920771 -1.575980 5.636400
H 6.674338 -2.274177 3.405521
H 8.156490 -0.894062 2.186742
H 7.395505 0.862283 0.634091
H 5.094850 0.741093 0.020667
H 2.250003 0.907503 -4.683714
C 1.105574 -0.785534 -4.790734
C -4.955765 -0.557625 -1.346361
C -5.383451 -1.442129 -2.310453
C -6.725499 -1.498201 -2.672617
H 2.713083 3.532071 1.441990
O 2.913653 6.165684 -1.381084
C -7.626589 -0.666153 -2.052238
C -7.225449 0.202071 -1.094856
C -5.890775 0.276231 -0.728406
C -1.400074 1.895107 0.582862
C -0.232050 2.739817 0.177002
C 0.847488 2.716303 1.033586
C 0.955147 4.420192 -1.079994
C -0.226151 3.559203 -0.841864
C -0.709878 -3.770054 1.106207
C 1.350388 -0.277261 3.923781
N 0.844539 -0.893339 1.765262
H 2.943148 0.847812 -6.971897
C 2.508089 -0.369510 3.257566
C 2.207234 -0.771064 1.901737
H 2.081878 -0.718609 -8.349181
N -1.198030 -0.716981 -1.800107
C 3.164365 -0.928429 0.871726
N -2.175808 -0.190620 1.126519
C 2.888582 -1.029722 -0.504044
N -1.162635 0.636906 0.621636
C 3.829490 -1.308277 -1.560519
C 3.152567 -1.273910 -2.724592
C 1.779548 -0.970032 -2.423664
C 0.993491 -1.755051 -6.998997
C 0.620372 -1.749625 -5.663695
O -0.793940 -2.853173 0.095351
O -2.573998 2.419659 0.581884
C 4.614072 -0.874165 1.263900
C 5.124346 -1.760477 2.207494
C 6.476718 -1.689934 2.559968
C 7.290795 -0.749358 1.933808
C 6.796745 0.109822 1.028419
C 5.434049 0.068219 0.687314
Zn -0.036494 -0.898222 -0.097452
H -1.377953 -3.113460 -0.724872
H 1.179313 0.004911 4.794106
H -3.697779 0.120675 -3.726027
H -4.948391 -1.597685 1.200526
C 1.897530 3.584527 0.865712
H -3.747922 -1.592259 3.413865
C 1.779548 4.467221 -0.149246
H -2.829135 0.898459 4.626216
H -3.506058 0.883988 7.120335
H -2.553351 -0.745741 8.299887
H -0.916347 -2.263324 7.449002
H -0.248272 -2.209060 5.291462
N 1.652717 -0.882124 -1.070834
C 1.952097 0.193027 -5.290163
C 2.306044 0.196644 -6.629753
N 2.941674 5.453017 -0.379921
O 3.898805 5.355342 0.461935