85
Zn1 H44 C36 N4
Zn -0.183592 0.087121 0.052883
H 1.963857 2.433781 3.047267
H -0.935154 -3.006731 3.041302
H -2.206493 -2.328083 -2.964302
H 0.867876 3.018920 -3.009083
H 2.693388 5.620165 -1.053049
H 2.362907 4.743165 -2.348156
H 0.140594 5.471401 -2.329636
H 0.372155 6.243557 -0.947390
H 2.932817 4.296873 2.429302
H 2.032427 6.429157 2.756773
H 1.278166 6.362568 1.347044
H 0.817292 5.409061 2.546838
H 1.721055 1.750884 5.300285
H 1.653610 0.379421 6.123388
H -0.046004 -1.383078 6.119593
H -0.495637 -2.556188 5.132575
H 1.239948 -3.298591 6.524005
H 1.737917 -3.305675 5.003575
H 2.190922 -2.128315 5.986245
H -2.375105 -4.675721 2.475341
H -3.075409 -5.395455 1.229868
H -1.356685 -6.779669 2.058462
H -0.963256 -6.302207 0.584065
H -0.285434 -5.609392 1.857807
H -3.539656 -5.157433 -1.006334
C 3.428538 0.608093 5.092074
H -3.541904 -4.045245 -2.153825
H -2.568447 -6.061351 -2.934198
H -1.501692 -4.869823 -2.994097
H -1.431999 -5.946591 -1.812329
H -2.501002 -1.383078 -5.043370
H -1.750115 -0.406903 -6.067195
H 1.087072 6.760689 -2.282795
H -1.071168 -2.653947 -6.430275
H 0.185557 -1.776948 -5.967248
H -0.543973 -2.743206 -4.921887
H 0.891482 2.117835 -5.243594
H -0.078602 1.230918 -6.154182
H -0.686732 3.497798 -6.321935
H -1.885005 2.683138 -5.642105
H -0.908176 3.572889 -4.740214
C 1.014007 2.685122 -1.030539
C 1.672720 3.900453 -0.612774
C 1.931259 3.766424 0.723642
C 1.414181 2.473168 1.117890
C 1.507929 1.917500 2.393276
C 1.008386 0.691117 2.810379
C 1.137656 0.156134 4.150526
C 0.459834 -1.021227 4.166534
C -0.041508 -1.228930 2.815843
C -0.753052 -2.344093 2.385374
C -1.227416 -2.597275 1.101438
C -1.944131 -3.778887 0.687451
C -2.244711 -3.626014 -0.638778
C -1.687166 -2.339984 -1.024801
C -1.724261 -1.826536 -2.317165
C -1.125124 -0.648325 -2.754726
C -1.075664 -0.216910 -4.138925
C -0.386601 0.953509 -4.153912
C -0.035887 1.243244 -2.772744
C 0.639013 2.381643 -2.341643
C 1.993084 5.075688 -1.491590
C 0.790314 5.967847 -1.789712
C 2.564118 4.768810 1.641468
C 1.586165 5.837927 2.114854
C 1.930135 0.783776 5.262131
C 0.241761 -1.930813 5.347477
C 1.460268 -2.737539 5.750954
C -2.236843 -4.972682 1.541868
C -1.109387 -6.009496 1.507405
C -2.958504 -4.568186 -1.550753
C -2.032260 -5.439943 -2.398638
C -1.618597 -1.008051 -5.291718
C -0.677739 -2.147866 -5.687826
C -0.039259 1.793955 -5.342049
C -0.962132 2.994268 -5.528018
N 0.844720 1.845384 0.039287
N -0.481699 0.247376 -1.947160
N -1.083421 -1.741812 0.040842
N 0.303586 -0.170155 2.016786
H 3.318378 5.206459 1.171457
H 3.893909 1.024065 5.847125
H 3.644362 -0.347397 5.062543
H 3.714056 1.033983 4.256749