157
Zn1 H84 C64 N4 O4
C -2.311758 -3.289646 -4.114715
H 0.432196 0.769302 5.624271
C -4.434040 -2.886642 -1.877732
H 0.766092 1.825207 9.897679
H -0.560672 2.581938 9.436544
H 0.857791 3.248164 9.162271
H -2.430374 6.941316 4.870029
H -2.832158 5.525901 4.243806
H -1.380134 6.145616 3.995633
H -3.931162 0.549322 5.037181
H -2.993140 1.816407 4.985529
H -2.421271 0.448759 5.504187
H 1.594489 3.924446 4.276360
H 3.155219 3.762289 4.072560
H 2.343251 2.721469 4.904027
N 1.418392 -0.112756 -1.474191
N -1.191939 -1.125293 -1.213722
O -0.428506 -1.708177 -7.936442
O 1.628855 -5.429110 -5.816231
H -5.053775 -2.207344 -1.491591
H 3.883745 4.840820 1.480883
H -4.729324 -3.057095 -2.828871
H -4.035546 -1.532319 0.379134
H -6.251897 -4.887330 -2.053634
H -4.264039 -3.996096 -0.142694
C 2.474203 1.502401 0.876538
C 3.046838 2.312305 1.921270
C 2.095915 2.466417 2.882373
C 0.925977 1.686053 2.443169
C -0.279884 1.502401 3.155373
C -1.370573 0.729580 2.711991
C -2.617398 0.460073 3.445777
C -0.406788 2.212246 4.461552
H -3.968875 -2.874826 2.514392
C -0.995213 3.497684 4.477620
C -1.092560 4.171829 5.677888
H -3.277556 -2.199801 4.730689
C -0.640287 3.610188 6.866676
H -4.636130 -4.733973 4.712718
C -0.072953 2.346748 6.836774
H -3.129917 -4.526563 4.163473
C 0.039472 1.648971 5.631751
H -3.984167 -4.200992 6.890820
C 0.370535 2.387099 9.189788
H -2.486634 -3.859080 6.376712
C -2.106464 6.052596 4.635254
H -2.548160 -6.016142 7.395937
C -3.017562 0.856037 4.836277
H -3.641910 -6.502613 6.333555
C 2.311758 3.289646 4.114715
H -2.150513 -6.173271 5.855291
C -2.649130 -0.499795 1.400191
C 4.434040 2.886642 1.877732
C -3.127927 -1.201594 0.305792
C -3.396712 -0.297036 2.616616
N -1.418392 0.112756 1.474191
N 1.191939 1.125293 1.213722
O 0.428506 1.708177 7.936442
O -1.628855 5.429110 5.816231
C -4.540899 -4.179623 -1.086451
C -4.101612 -2.725240 4.575267
C -3.801618 -4.199735 4.833835
C -3.273592 -4.454912 6.224027
C -2.873023 -5.906781 6.467139
H -5.918287 -5.695600 -0.686131
H -6.705974 -3.904333 0.595433
H -7.043334 -3.068409 -0.716098
H -8.232986 -5.563612 -0.139074
H -8.817870 -4.790539 -1.346469
H -10.219054 -4.413430 0.516236
H -8.913845 -4.326695 1.507288
H -9.245048 -3.065895 0.542627
H -5.303934 -0.805756 2.037444
H -5.200243 -0.483956 3.629303
H -5.489625 -2.892425 3.091877
H -4.790350 -2.402183 5.231844
H 5.918287 5.695600 0.686131
H 6.705974 3.904333 -0.595433
H 7.043334 3.068409 0.716098
H 8.232986 5.563612 0.139074
H 8.817870 4.790539 1.346469
H 10.219054 4.413430 -0.516236
H 8.913845 4.326695 -1.507288
H 9.245048 3.065895 -0.542627
H 5.303934 0.805756 -2.037444
C -5.949825 -4.786768 -1.100850
H 5.200243 0.483956 -3.629303
C -6.968427 -3.998610 -0.344472
H 5.489625 2.892425 -3.091877
C -8.368917 -4.614555 -0.373672
C -9.268347 -4.075289 0.617621
H 4.790350 2.402183 -5.231844
C -4.741451 -0.933973 2.863859
C -4.609356 -2.446179 3.180703
H 4.035546 1.532319 -0.379134
C 5.949825 4.786768 1.100850
C 6.968427 3.998610 0.344472
C 8.368917 4.614555 0.373672
C 9.268347 4.075289 -0.617621
C 4.741451 0.933973 -2.863859
C 4.609356 2.446179 -3.180703
H 4.264039 3.996096 0.142694
H 1.319099 -3.898048 -3.652666
H 0.730367 -4.105458 -7.687819
H -0.432196 -0.769302 -5.624271
H -0.766092 -1.825207 -9.897679
H 0.560672 -2.581938 -9.436544
H -0.857791 -3.248164 -9.162271
H 2.430374 -6.941316 -4.870029
H 2.832158 -5.525901 -4.243806
H 1.380134 -6.145616 -3.995633
H 3.931162 -0.549322 -5.037181
H 2.993140 -1.816407 -4.985529
H 3.968875 2.874826 -2.514392
H 2.421271 -0.448759 -5.504187
H -1.594489 -3.924446 -4.276360
H 5.053775 2.207344 1.491591
H -3.155219 -3.762289 -4.072560
H 4.729324 3.057095 2.828871
H -2.343251 -2.721469 -4.904027
H 3.277556 2.199801 -4.730689
H 4.636130 4.733973 -4.712718
H 3.129917 4.526563 -4.163473
H 3.984167 4.200992 -6.890820
H 2.486634 3.859080 -6.376712
H 6.251897 4.887330 2.053634
H 2.548160 6.016142 -7.395937
H -3.883745 -4.840820 -1.480883
H 3.641910 6.502613 -6.333555
H 2.150513 6.173271 -5.855291
C 2.649130 0.499795 -1.400191
C 3.127927 1.201594 -0.305792
C 3.396712 0.297036 -2.616616
C 4.540899 4.179623 1.086451
C -2.474203 -1.502401 -0.876538
C -3.046838 -2.312305 -1.921270
C -2.095915 -2.466417 -2.882373
C -0.925977 -1.686053 -2.443169
C 0.279884 -1.502401 -3.155373
C 1.370573 -0.729580 -2.711991
C 4.101612 2.725240 -4.575267
C 2.617398 -0.460073 -3.445777
C 3.801618 4.199735 -4.833835
C 3.273592 4.454912 -6.224027
C 0.406788 -2.212246 -4.461552
C 2.873023 5.906781 -6.467139
C 0.995213 -3.497684 -4.477620
C 1.092560 -4.171829 -5.677888
C 0.640287 -3.610188 -6.866676
C 0.072953 -2.346748 -6.836774
C -0.039472 -1.648971 -5.631751
Zn 0.000000 0.000000 0.000000
C -0.370535 -2.387099 -9.189788
C 2.106464 -6.052596 -4.635254
H -1.319099 3.898048 3.652666
C 3.017562 -0.856037 -4.836277
H -0.730367 4.105458 7.687819