91
Co1 H32 C51 N5 O2
Co -0.002992 -0.067105 -0.440265
H 0.050123 1.845861 -5.047679
H -1.759309 0.156246 -5.109291
H -3.584621 -3.337556 -1.508475
H -3.622511 -3.386283 0.971357
H -2.530281 0.548690 4.499750
H -0.790667 2.312052 4.528208
H 3.961224 2.094760 -6.282467
H 2.566149 1.060974 -4.748695
H -1.409297 -2.858196 -4.609519
H -2.659199 -3.917003 -6.277374
H -4.966854 -3.586455 -6.396408
H -6.022420 -2.219487 -4.820817
H 3.393031 3.298429 1.272201
H -4.781553 -1.196236 -3.135183
H 3.586018 3.244435 -1.191468
H -4.979772 -1.805972 2.344887
H -6.205387 -2.975402 3.970483
H -1.614606 -2.384103 4.496965
H 1.974850 1.365183 4.697341
H 2.271585 4.545557 -2.695078
H 3.739745 5.538519 -4.192018
H 4.622486 4.317729 -5.979153
H 3.327653 -2.604029 -1.887896
H 3.210329 -2.609297 2.749888
C 1.610523 2.157972 1.035861
C 1.765017 2.115831 -1.165459
C 1.427881 2.005209 -2.538614
C 0.332163 1.267731 -3.004953
C -0.226485 1.290118 -4.328984
C -1.218759 0.373539 -4.359372
C -1.305277 -0.209859 -3.059091
C -2.146544 -1.237061 -2.655286
C -2.303841 -1.645308 -1.313565
H 3.531246 4.791822 6.164557
C -3.131805 -2.738355 -0.927155
H 2.904585 5.905941 4.215595
C -3.153020 -2.763377 0.428915
H 1.828136 4.762850 2.481779
C -2.337699 -1.675597 0.897612
C -2.332465 -1.267350 2.249956
C -1.615140 -0.167718 2.743843
C -1.833476 0.652727 3.863766
C -0.875645 1.621984 3.879207
C -0.026939 1.424445 2.763866
C 2.789129 2.875696 0.672544
C 1.110504 2.138218 2.351219
C 2.895735 2.850675 -0.672258
C 2.798950 1.974920 -4.631838
C -2.966361 -1.925813 -3.704640
C -2.349772 -2.730454 -4.645130
C -3.092927 -3.357310 -5.643650
C -4.457977 -3.166356 -5.712192
C -5.082728 -2.355130 -4.775994
C -4.344446 -1.744077 -3.777287
C -3.166640 -2.000877 3.239795
C -4.535004 -2.165493 3.103550
C -5.268872 -2.854245 4.075282
C 2.287236 2.692644 -3.541795
C -2.548787 -2.503943 4.371680
C 2.633013 4.034590 -3.409188
C 2.162417 2.289665 4.590416
C 3.497287 4.627207 -4.306428
C 4.016715 3.909482 -5.371839
C 3.638607 2.585973 -5.536188
C 2.254025 -1.896840 -0.279966
C 3.284083 -2.621149 -0.940449
C 3.215055 -2.617198 1.799501
H 4.880539 -3.834037 -0.704791
C 2.247675 -1.894206 1.120435
H 4.819469 -3.849840 1.640298
C 1.295028 -1.144876 1.978692
N 1.006610 1.635153 -0.114172
N -0.387646 0.398560 -2.243643
N -1.755535 -1.027670 -0.202217
N -0.516733 0.352468 2.097308
N 0.339980 -0.486413 1.330114
C 1.788259 2.938909 3.413899
O 1.321112 -1.281836 -1.016001
O 1.382153 -1.133024 3.250559
C 2.807292 2.981050 5.609924
C 3.086694 4.320363 5.469980
C 2.716887 4.980143 4.308874
C 2.073318 4.301926 3.276502
H -5.130048 -3.820868 5.837900
H -2.866985 -3.545630 6.098759
C 4.214390 -3.340190 -0.240469
C 4.181781 -3.346775 1.147092
H 3.056434 2.526711 6.407492
C -4.632025 -3.354676 5.176528
C -3.298922 -3.190061 5.330293