103
Ni1 H44 C53 N4 O1
Ni -0.206174 0.106079 -0.068334
C 3.543848 -0.942244 -1.488011
C 2.993885 -2.160864 -1.373405
H -4.994792 1.392687 -0.679815
C 1.717607 -2.019706 -0.756875
C 0.864398 -3.060907 -0.452428
C 4.339159 1.738459 -0.699646
C 5.397212 1.153108 -0.014811
C 6.706528 1.504060 -0.325733
C 6.956586 2.440363 -1.321857
C 4.590421 2.674763 -1.695405
C 4.755293 -0.722090 -2.269674
C 1.444424 -4.441404 -0.587885
H -2.090006 -5.842623 0.353241
C 2.156287 -5.003446 0.465278
H 4.310087 3.713374 0.584234
H -4.687881 -3.599638 -0.463733
H 3.632411 4.789540 1.559049
H -3.903139 -4.967185 -0.173724
C 2.621153 -6.310127 0.371814
C 1.663496 -6.492726 -1.830486
H -5.267391 -4.411619 1.703504
C 1.198631 -5.186044 -1.735585
H -3.728409 -4.371473 2.140410
H -4.513425 -3.007811 1.849067
H 5.197831 3.484154 2.799536
H -4.220751 -1.899269 -2.831655
H 3.727565 3.200544 3.364665
H -6.343675 -2.620598 -3.500871
H 6.069542 3.665458 -2.687477
H 3.867564 3.074926 -2.164466
H -8.160137 -2.425049 -2.039970
H -7.854167 -1.509466 0.091498
H -5.731243 -0.788136 0.760714
H -1.626588 -4.895959 2.535365
C 0.100393 2.875492 0.996728
N 1.461670 -0.685829 -0.512067
C 2.039845 2.050561 0.301127
O 5.594628 -1.581987 -2.475144
C -0.466150 -2.875718 -0.147924
C -1.476864 -3.897494 0.055951
C -2.678361 -3.309552 -0.107342
C -2.439359 -1.886318 -0.296095
C -3.400310 -0.918934 -0.516787
C -3.127771 0.427893 -0.349350
C -4.098681 1.470389 -0.375329
C -3.517533 2.590586 0.109675
C -2.170845 2.264240 0.429599
H -3.932829 3.438828 0.218735
H 1.840617 5.398203 2.515623
H 0.271928 5.460364 2.199957
H -0.132289 3.798846 3.873162
H 1.435854 3.728914 4.184722
C -1.266169 -5.315547 0.496155
C -3.990463 -4.019226 0.100656
C 3.709942 3.822156 1.363176
C -4.414229 -3.946705 1.583611
C 4.321965 3.095647 2.592420
C -4.775877 -1.276361 -0.972160
C -4.958594 -1.820272 -2.238384
C -6.218727 -2.247631 -2.636612
C -7.299041 -2.132373 -1.767997
C -7.116323 -1.588462 -0.501773
C 5.898533 3.025715 -2.006693
C -5.855699 -1.159809 -0.103458
C -0.893391 -5.297417 2.025272
N 0.677681 1.769540 0.348108
N -1.092020 -1.622133 -0.237458
N -1.901504 0.949789 0.113136
H -2.541236 4.041015 3.133858
H -3.158108 7.901488 2.064106
H -2.022700 7.525930 0.052570
H -1.145110 5.408563 -0.417194
C 1.166473 3.754815 1.486794
C 2.348110 3.266590 1.027966
C -1.238362 3.172053 0.968311
C 1.007808 4.863357 2.485421
C 0.702983 4.311676 3.896543
C -1.760124 4.525355 1.314077
C -2.436095 4.748100 2.508919
C -2.956489 6.006865 2.787745
C -2.802608 7.041591 1.872716
C -2.127840 6.818846 0.678947
C -1.606243 5.560081 0.399048
C 2.374156 -7.054767 -0.776251
H 0.611066 5.057611 4.525901
H 3.387297 -2.978025 -1.656018
H -3.417622 6.158383 3.603987
H 4.427781 2.142507 2.390071
H 5.226203 0.513365 0.665974
H 7.428893 1.102602 0.143241
H 7.851656 2.679943 -1.533214
H 4.898344 0.141692 -2.640387
H 2.324507 -4.494501 1.249829
H 3.106797 -6.694750 1.091669
H 2.693276 -7.947040 -0.840495
H 1.495276 -7.001671 -2.613599
H 0.711782 -4.801422 -2.455805
H -0.533792 -5.728660 -0.028008
H -0.744193 -6.215590 2.334946
H -0.077267 -4.771636 2.157275
C 2.933504 1.267070 -0.429447
C 2.620153 -0.009826 -0.874428