83
Zn1 H24 C45 N4 Cl8 O1
Zn -0.100459 -0.019780 -0.101543
H -3.287789 -4.576123 0.662594
H -4.313248 -6.308840 1.831710
C -3.356505 -5.972415 3.565434
C -2.438993 -5.197407 4.191901
C -1.840290 -4.154017 3.510492
H 0.856134 -3.845607 -4.158357
H -4.591704 5.082615 3.428323
H -3.444036 3.732537 1.948300
H -1.757968 -0.099577 -1.947072
H -3.632208 0.714426 -1.093866
C -2.146377 2.967015 3.275467
H -2.847488 1.682454 -2.044971
C -1.775929 3.019113 4.618422
C -2.473418 3.842918 5.492527
C -3.527136 4.605009 5.044905
H 0.668486 4.679238 -2.893545
C -3.883364 4.563388 3.732959
C 1.695501 1.429198 -2.117976
H -2.685643 1.808866 -0.490830
C 1.626949 -2.152056 -2.209358
C 0.954905 -2.735608 -1.125370
C -0.394122 2.580085 1.544000
C 1.021062 -4.119572 -0.714250
C 0.143513 -4.289212 0.299946
C 0.128695 3.931039 1.605716
C -0.482730 -3.007148 0.554962
C 0.986936 4.092643 0.565123
C 1.008639 2.856935 -0.190515
C -1.511901 -2.751252 1.484429
C -1.943416 -1.469906 1.861768
C 1.626351 2.657156 -1.445859
C -3.086191 -1.158754 2.700804
C -3.070325 0.167371 2.945671
C -1.904052 0.722793 2.265039
Cl -4.300211 0.935777 3.859315
H 4.204920 -2.503006 -2.389280
C -2.157153 -3.914338 2.183833
H 5.484588 -3.785185 -3.838617
C -3.075115 -4.723791 1.555713
H 4.450044 -5.097560 -5.447798
Cl -0.194904 5.182533 2.729016
C -3.687289 -5.764311 2.251386
H 2.135832 -5.127771 -5.607683
C -1.439159 2.042316 2.326409
H 1.731603 6.488264 -3.883089
H 4.025324 6.751925 -3.656267
H 5.255928 5.206559 -2.439921
C 2.232987 1.194974 -3.453005
H 4.192826 3.397518 -1.450362
C 2.237178 -0.138327 -3.666124
C 1.703284 -0.775843 -2.476955
C -3.194855 3.749630 2.844144
C -2.810189 1.194974 -1.219268
N 1.336878 0.217172 -1.587958
N 0.067777 -2.083454 -0.296160
N -1.278706 -0.295194 1.583342
C 1.587285 4.784409 -2.803161
Cl -0.019783 -5.771200 1.145519
Cl -4.363224 -2.173871 3.229421
N 0.206975 1.942713 0.466602
O -1.793890 0.335289 -1.254980
H -3.768907 -6.659704 4.035403
H -2.214329 -5.365986 5.079172
H -1.221575 -3.611712 3.943450
C 2.403018 -3.047477 -3.130406
C 3.790513 -3.028820 -3.034634
C 4.556853 -3.796652 -3.903084
C 3.937195 -4.583141 -4.867783
C 2.551197 -4.601799 -4.962035
C 1.783361 -3.833967 -4.095105
H -1.064864 2.505728 4.927281
H -2.226633 3.878769 6.388433
H -3.994304 5.148605 5.638200
C 2.325187 3.858705 -2.073674
C 2.224904 5.869420 -3.395143
Cl 2.704316 -0.832390 -5.167815
C 3.598928 6.027292 -3.259158
Cl 2.047089 -5.378816 -1.264257
C 4.336829 5.100153 -2.531667
C 3.699210 4.016577 -1.937689
Cl 1.824222 5.562574 0.302086
Cl 2.729910 2.311129 -4.659562