99
H37 Rh1 C55 N5 Cl1
N 1.849096 0.821283 -0.789347
N 0.791981 0.774533 1.803278
H -6.738268 -1.905760 -2.704921
C 0.788593 -3.386154 -0.910213
H -4.493593 -1.600331 -2.177448
C 0.730994 -2.036658 -0.853889
H 0.998661 0.927248 5.065174
H 3.189124 0.589094 4.043404
H 5.040769 0.649868 -0.804370
H 4.112406 1.083079 -3.132784
Rh 0.001008 0.778787 -0.000130
C -0.219393 0.913223 -2.975027
H -1.356130 -1.516182 1.465529
H 2.076105 3.320812 -4.086362
C -1.064746 0.916339 -4.092579
H -1.386624 -3.833389 1.433217
H 2.902823 3.933228 -6.352132
H 2.916375 2.321935 -7.988167
C -2.318376 0.702851 -3.545905
C -2.199789 0.640519 -2.112076
H 2.379347 0.155884 -7.418929
C -3.211164 0.596886 -1.182725
H 1.517053 -0.386408 -5.461068
H -0.470119 -5.873217 1.957101
C -3.072248 0.663893 0.140310
H -0.532801 -8.241848 1.881859
C -4.122586 0.783883 1.191073
H -0.085560 -9.327991 -0.051503
C -3.514406 0.955297 2.327109
H 7.143140 2.042998 2.928707
C -2.187931 0.963089 2.139120
H 8.032540 -0.085654 3.155301
C -1.195191 1.106453 3.161102
C 0.107567 0.939714 3.081137
H 5.247449 2.297002 1.530564
C -1.752548 1.497589 4.526200
C -2.154049 2.781636 4.860917
C -2.572490 3.099532 6.029348
C -4.556274 0.374048 -1.772589
C -2.640254 2.158312 7.068955
C -2.208260 0.877382 6.866264
C -5.388075 1.446165 -2.025962
C -6.743350 1.271634 -2.373005
C -1.762713 0.536112 5.516870
C -7.182121 0.049919 -2.750127
C -6.394367 -1.029990 -2.565996
C -5.072973 -0.847668 -2.170940
H 6.611195 -1.882385 2.922286
C 3.029880 0.719992 -0.178697
C 4.125959 0.757392 -1.042502
C 3.614342 0.984905 -2.328577
C 2.094740 1.042563 -2.174733
C 1.229057 1.103337 -3.211036
H 4.576588 -1.608123 1.789132
C 1.162988 0.858682 4.130351
H 1.339174 -3.822481 -1.549620
H 1.249387 -1.558257 -1.490062
C 2.360712 0.676360 3.587836
H 0.526008 -8.092251 -2.024117
H 0.622572 -5.820235 -1.932260
N -0.863149 0.748042 -1.872592
N -1.871135 0.802583 0.852518
C 2.143868 0.640519 2.173403
Cl 0.002533 3.120101 -0.018272
C 3.217924 0.536112 1.250972
C 1.700016 1.407207 -4.578436
C 2.106598 2.677230 -4.785280
C 2.613132 3.048107 -6.164224
C 2.645320 2.113121 -7.101807
C 2.279396 0.838424 -6.765708
C -0.793691 -1.985234 0.859820
C 1.803355 0.508062 -5.603735
C -0.800468 -3.373688 0.841355
C 0.014392 -4.122456 -0.004886
C 0.011004 -5.612979 -0.042740
C 5.472763 1.450840 1.897546
C -0.290545 -6.332919 1.147379
C 6.667100 1.284101 2.611602
C -0.317651 -7.746306 1.099371
C 7.141446 0.040569 2.847921
C -0.044901 -8.380538 -0.021962
H -0.834349 1.036329 -5.006634
C 6.336752 -1.017523 2.640710
C 0.317635 -7.637224 -1.217625
H -3.126459 0.610911 -4.036560
C 5.103451 -0.850784 2.018523
C 0.349822 -6.303311 -1.159923
H -5.062809 0.743367 1.054041
H -3.948095 1.059704 3.167319
C 4.657904 0.408330 1.742962
H -2.116779 3.456385 4.193390
H -2.841851 3.995560 6.196943
H -2.987543 2.412317 7.915160
H -2.198095 0.240033 7.568872
H -5.035703 2.326610 -1.966900
H -1.479799 -0.349008 5.321576
H -7.343059 2.007156 -2.340644
N 0.011004 -1.301603 0.020043
H -8.042720 -0.048254 -3.141526