101
Ni1 H50 C43 N6 O1
H 1.799864 -1.365031 -9.720975
C 0.768634 2.758618 -1.800784
C -0.112128 3.522356 -1.132354
C -0.637754 2.763968 -0.031903
C -2.125637 2.537923 1.881288
C -3.147711 3.066253 2.795615
C -1.561813 3.262872 0.867285
C -3.539780 2.022969 3.595803
C 1.528141 3.266885 -3.026473
C 0.711798 3.190645 -4.348578
C -3.585220 4.490738 2.863916
C -0.527944 4.966904 -1.451260
C -2.581177 5.401605 3.628285
C 0.213688 6.030251 -0.656974
C -4.571747 2.055070 4.712056
C -4.044398 2.630214 6.006097
H 0.178145 -0.282957 -8.547535
H 3.754796 -2.077942 -8.623535
C 1.934291 -1.085484 -8.824085
H -3.383776 -0.426075 4.575564
Ni -0.491080 0.054371 1.288402
H 1.006658 -3.950504 2.055187
H -4.890860 1.132164 4.880689
H -2.525260 -3.731146 5.970482
H -3.463221 -2.485893 5.612614
H -2.512054 -2.093992 7.730505
H -1.037245 -2.313349 7.150530
H -1.884155 -1.026632 6.718659
H 0.678369 -4.770418 4.155528
H -0.394999 -4.767743 5.341975
H -1.966548 -5.796315 3.912354
H -0.649969 -6.696482 4.049539
H -0.882187 -5.809690 2.737063
H 2.881552 -4.592525 0.944174
H 0.853093 -5.294735 -0.140531
H 3.568396 -4.415969 -0.491528
H 2.066414 -6.277830 -0.491203
H 1.591540 -5.181044 -1.556167
H 4.361007 -2.729326 -1.616999
H 3.987997 -1.331592 -2.294703
H 2.279856 -2.550095 -3.578152
H 2.970412 -3.895664 -3.056968
H 3.791112 -2.884481 -3.986345
H 3.259941 0.693450 -2.558754
H 3.648782 0.389827 -4.703364
H 0.681936 0.631923 -6.425493
C 1.886821 0.124994 -3.845890
C 1.629255 0.353714 -1.422508
H 4.222881 -1.344967 -6.440111
C 0.805220 1.457188 -1.102160
C -2.711127 0.878031 3.213498
C -2.725753 -0.305696 3.902878
C -1.818712 -1.346305 3.664426
C -1.741922 -2.547420 4.474536
C -0.785266 -3.321858 3.905680
C -0.269240 -2.600921 2.749866
C 0.677334 -3.073075 1.898490
C 1.194201 -2.392265 0.833867
C 2.198563 -2.937983 -0.070676
C 1.680354 -0.832688 -0.688792
C 2.541221 -1.986989 -0.968871
C 2.482428 -0.290983 -6.212366
H -1.822198 4.172402 0.775464
C -2.524143 -2.765439 5.753087
C -1.937886 -1.977626 6.946692
H 2.356819 2.735880 -3.132167
C -0.288096 -4.698191 4.360295
H 1.792442 4.208516 -2.868536
C -1.009774 -5.851154 3.706756
H 0.441448 2.262389 -4.514099
H 1.266244 3.504968 -5.095552
C 1.714619 -5.369638 -0.603328
H -0.085851 3.755089 -4.275198
C 2.709967 -4.355779 -0.002643
H -0.378705 5.131421 -2.415857
H -1.498057 5.061869 -1.280832
C 3.622096 -2.210359 -2.020655
H -0.051937 5.978087 0.284152
H -4.466582 4.534877 3.312730
C 3.120363 -2.952696 -3.275306
H -3.697856 4.837162 1.942742
H -0.008915 6.917043 -1.010606
H -2.496096 5.089958 4.550798
H 1.179153 5.881784 -0.735048
H -2.909560 6.325848 3.621817
C 1.305146 0.059454 -6.858631
C 1.030086 -0.432762 -8.159090
H -5.347683 2.592763 4.416643
H -1.706206 5.364154 3.186559
N -0.072697 1.474576 -0.017186
H -3.356964 2.035007 6.370175
N -1.834101 1.192354 2.179100
H -4.777913 2.717154 6.647391
N -0.907144 -1.363693 2.617433
H -3.653294 3.512993 5.832922
N 0.867930 -1.086821 0.442462
C 3.414713 -1.090834 -6.869470
N 2.419566 0.437979 -2.613524
C 3.143332 -1.510823 -8.169111
O 0.694684 -0.146528 -3.991914
N 2.826266 0.126331 -4.873597