103
Zn1 Si1 H44 C48 N4 O5
Zn 0.496862 0.042847 0.948520
C 3.268604 1.240357 0.277868
C 3.129492 0.971728 -1.094218
H -1.160924 -0.821191 5.774008
H 0.868460 0.530466 6.069894
H 2.552836 0.276546 -3.767743
H 0.429807 -0.928024 -4.114090
H -3.320918 -2.912931 -0.879987
H -3.620336 -3.005829 1.571968
H -3.263006 -4.987640 5.631799
H -5.426697 -4.193367 5.634093
H -5.963923 -2.166656 4.656981
H -5.652184 0.816899 2.920657
H -5.978709 0.053592 4.269347
H -6.185713 -0.674104 2.879371
H 0.086032 -5.314329 4.829007
H -1.386411 -5.815975 4.528534
H -1.048797 -5.139372 5.920804
C 2.905237 4.627086 -3.139272
H -1.614363 -3.886806 -2.614017
H -2.989464 -4.614502 -4.322816
H -4.073774 -3.100274 -5.689855
H -3.738624 -0.827385 -5.389382
H 4.654918 2.400800 2.867902
H 5.125607 2.278485 0.448059
C -2.314235 1.645389 -3.459471
C -3.105288 3.966121 -1.731405
C -0.422854 3.938252 -3.217257
C -3.042448 4.223137 -4.739579
C 0.084800 3.153269 0.780644
C 5.348876 0.620421 -2.205511
C 6.455119 -1.437411 -1.741726
H 4.994997 3.743167 -4.205838
O 3.007384 3.364765 -2.491304
H 6.808751 2.348158 -4.513192
O -0.565416 1.909063 0.723990
C -0.742972 -0.769633 3.674593
C -0.590429 -0.518965 5.092094
C 0.518524 0.223595 5.253569
C 1.071275 0.464354 3.940661
C 2.059352 0.297138 -1.689201
C 1.935149 0.034239 -3.102573
C 0.772351 -0.622856 -3.294555
O 5.419356 -0.499302 -1.438271
C 0.153801 -0.768704 -1.991739
C -1.068511 -1.423321 -1.749066
C -1.608818 -1.682041 -0.488454
C -2.779626 -2.495822 -0.234543
C -2.945846 -2.541187 1.110248
C -1.899364 -1.747379 1.700873
C -1.748423 -1.528296 3.076169
C -2.772603 -2.225645 3.939285
C -2.479346 -3.442911 4.546195
C -3.470011 -4.176955 5.205172
Si -2.206790 3.463082 -3.271618
C -4.751468 -3.690173 5.216641
C -5.080457 -2.484519 4.635420
H 2.662499 1.555434 4.418437
C -4.073774 -1.748153 4.016124
C -5.634933 -0.043950 3.368386
C -0.856578 -5.133179 4.968922
C 4.110422 2.002580 2.214430
C 4.368808 1.935384 0.887989
C -1.856977 -1.899266 -2.933298
C -2.048087 -3.258045 -3.161979
C -2.867480 -3.693269 -4.185653
C -3.506976 -2.793713 -5.005877
C -3.313525 -1.442056 -4.818482
C -2.484891 -0.976175 -3.779211
C -2.363399 0.437259 -3.587000
H 2.082147 5.062311 -2.870910
H 2.905237 4.498733 -4.100328
N 0.281208 -0.143195 2.994514
H 3.660557 5.181529 -2.886966
N 2.349651 0.898185 1.240300
N 0.958901 -0.201411 -1.036646
N -1.094141 -1.235669 0.709769
O -4.296181 -0.523610 3.420911
O -1.180639 -3.861569 4.430593
H -3.053537 4.929158 -1.627730
H -2.696208 3.535697 -0.964854
C 4.227848 1.424139 -2.015593
H -4.034345 3.696719 -1.797463
C 4.115228 2.603007 -2.753473
H 7.084757 0.428279 -3.272306
H -0.347692 4.901288 -3.116335
C 5.081249 2.955397 -3.699391
H 6.400903 -2.188332 -1.129999
H 0.009637 3.664205 -4.040692
C 6.160630 2.120560 -3.871188
H 7.318870 -1.006986 -1.648373
H 0.004709 3.501634 -2.464927
C 6.328205 0.970490 -3.144088
H 6.347920 -1.753262 -2.653009
H -3.004251 5.189270 -4.669163
H -3.969040 3.936704 -4.767792
H -2.591474 3.939800 -5.549940
H -1.293999 1.815546 1.003132
H -0.564554 3.862386 0.656785
H 0.753868 3.199718 0.081069
H 0.512363 3.253908 1.645366
C 2.236169 1.163407 3.677575
C 2.848927 1.351679 2.437147