86
In1 H44 C36 N4 Cl1
In 0.007854 -0.696591 -0.007417
N 1.455107 -0.132697 1.466628
H -4.386720 -0.173372 -0.067074
H 0.056002 -0.070735 -4.401131
N 1.497787 -0.163488 -1.468912
H -0.050698 0.014795 4.361075
H -3.674497 -0.112550 5.165725
H -2.112676 -0.376745 5.396114
H -2.774216 1.704500 6.365908
H -1.669871 1.943986 5.232660
H -3.213020 2.232889 4.921667
H -5.449719 -0.492686 1.982355
H -5.262994 -0.173372 3.539676
H -6.487377 1.558147 2.521474
H -5.089607 2.139756 3.040614
H -5.293670 1.816640 1.487457
H -5.176300 -0.410957 -3.671864
H -5.412374 -0.460375 -2.089837
H -6.406018 1.497326 -2.949513
H -5.192305 1.921177 -1.996777
H -5.010915 1.953489 -3.587253
H -2.011311 -0.450871 -5.484682
H -3.550459 -0.059331 -5.287018
H -1.396452 1.831845 -5.209274
H -2.423440 1.681692 -6.426766
H -2.934266 2.223385 -5.010288
H 4.393359 -0.070735 0.032913
H 2.458087 1.617069 6.444759
C -1.287084 -0.036523 2.786642
C -2.572820 0.050908 3.450429
C -3.531786 0.007193 2.471118
C -2.836902 -0.114451 1.205022
H 3.654461 0.028100 -5.206499
C -3.437090 -0.154365 -0.057607
H 2.104643 -0.304519 -5.420418
C -2.808893 -0.169571 -1.308979
H 2.635476 1.826143 -6.362694
C -3.467766 -0.068835 -2.596222
H 1.564474 2.004807 -5.187254
C -2.484792 -0.023218 -3.540225
H 3.104956 2.348830 -4.924647
C -1.211061 -0.123954 -2.855831
H 5.496370 -0.129656 -1.999734
C 0.043999 -0.085941 -3.450909
H 5.282970 0.225771 -3.548420
H 6.220597 2.115047 -2.446931
H 4.744135 2.491381 -2.934272
H 5.010885 2.128351 -1.399805
H 2.004612 -0.452772 5.451027
H 3.559765 -0.131557 5.252451
H 3.096953 2.168266 5.083505
H 1.525795 1.881263 5.171685
C -0.038694 -0.019417 3.412378
C -2.766213 0.199161 4.925326
C -2.590158 1.653181 5.404748
C -5.010915 0.117432 2.627628
C -5.515073 1.533439 2.399410
C -4.945562 0.026199 -2.813479
C -5.432381 1.480220 -2.838494
C -2.626170 0.170651 -5.017537
H 5.154930 -0.772086 3.512363
C -2.316740 1.607565 -5.454968
H 5.401674 -0.464176 1.962256
H 6.548699 1.138097 3.201122
H 5.338988 1.883164 2.464291
H 5.224285 1.514432 4.017172
C 1.293723 -0.066934 -2.816228
C 2.571456 0.113631 -3.472698
C 3.515751 0.144042 -2.494204
N -1.483146 -0.141441 1.433534
C 2.832871 -0.038424 -1.226885
C 3.443728 -0.070735 0.026497
N -1.453803 -0.220319 -1.499977
C 2.812864 -0.104948 1.273701
C 3.473071 -0.057431 2.562264
C 2.484762 0.012895 3.511654
Cl 0.014523 -3.108592 0.014607
C 1.231036 -0.047927 2.812017
C 2.736841 0.294195 -4.947907
C 2.487429 1.752017 -5.396342
C 4.985544 0.438647 -2.629470
C 5.265631 1.930681 -2.324457
C 2.646146 0.149744 4.996594
C 2.411406 1.582856 5.465350
C 4.966871 -0.125855 2.786234
C 5.573728 1.223628 3.149771