117
Zn1 H44 C68 N4
H -3.872113 2.312507 -1.827232
C -1.430939 1.914519 1.908337
C -2.154594 3.157216 1.927337
C -2.132444 3.650350 0.682181
C -1.437676 2.715136 -0.144736
H 5.881148 0.033649 -3.879834
C -1.214479 2.845092 -1.519958
C -0.567204 1.918000 -2.328344
H -0.085675 5.130912 -2.292701
C -0.363395 2.036352 -3.746654
C -1.195455 1.104620 3.026373
C -1.731371 1.575707 4.362933
C -0.943781 2.284660 5.263975
C -1.406219 2.695411 6.525243
C -2.709586 2.418096 6.889816
C -4.785481 1.497966 6.452407
C -5.631621 0.838908 5.687275
C -5.254392 0.409591 4.405168
C -4.023519 0.613806 3.908200
H 0.841288 -3.147934 -7.107867
C -3.056028 1.290270 4.709948
H 3.105411 -2.338034 -8.889799
C -3.478306 1.728869 5.979289
C 0.301839 0.959580 -4.154814
C -1.761543 4.080827 -2.214463
C 0.526447 0.122993 -3.013279
C -0.974403 5.137873 -2.565344
H 3.589138 -3.685159 -8.225299
C -1.430042 6.242493 -3.317593
H 5.604491 -2.762709 -7.849625
C -2.766218 6.255257 -3.720818
H 5.107439 -1.403981 -8.479824
C -3.587449 7.213676 -4.523192
C -4.941876 6.567381 -4.715095
C -4.808018 5.339768 -3.856079
C -5.665465 4.411516 -3.557319
C -5.334361 3.299935 -2.797793
C -4.081217 3.077155 -2.313106
C -3.089627 4.098232 -2.596777
C -3.545289 5.190088 -3.368666
N -1.013844 1.648807 0.642019
H -0.841288 3.147934 7.107867
H -3.105411 2.338034 8.889799
H -3.589138 3.685159 8.225299
H -5.604491 2.762709 7.849625
H -5.107439 1.403981 8.479824
N -0.006109 0.725197 -1.901575
C 3.511917 -2.726740 -8.099345
C 4.906360 -2.089727 -7.825031
H -0.573217 -0.782052 5.026198
H 0.071592 -2.496997 -5.020363
H -5.881148 -0.033649 3.879834
H 0.085675 -5.130912 2.292701
H 2.562013 -3.547082 -2.666702
C -3.511917 2.726740 8.099345
H 2.503589 -4.456769 -0.404000
C -4.906360 2.089727 7.825031
H 0.646649 -2.740663 4.284258
H 6.488124 -0.656738 -5.999320
H 3.804967 -0.317926 -3.054765
H 0.856516 -6.941003 3.538930
C -0.301839 -0.959580 4.154814
H 3.679134 -8.057225 4.053167
C -0.526447 -0.122993 3.013279
H 3.167906 -7.381922 5.381276
H 5.096474 -6.335318 5.644512
H 5.658099 -7.142897 4.404718
H 6.538119 -4.495059 3.867218
H 5.999105 -2.676846 2.608548
H 3.872113 -2.312507 1.827232
C 1.430939 -1.914519 -1.908337
C 2.154594 -3.157216 -1.927337
C 2.132444 -3.650350 -0.682181
C 1.437676 -2.715136 0.144736
C 1.214479 -2.845092 1.519958
C 0.567204 -1.918000 2.328344
C 0.363395 -2.036352 3.746654
C 1.195455 -1.104620 -3.026373
C 1.731371 -1.575707 -4.362933
C 0.943781 -2.284660 -5.263975
C 1.406219 -2.695411 -6.525243
C 2.709586 -2.418096 -6.889816
C 4.785481 -1.497966 -6.452407
C 5.631621 -0.838908 -5.687275
C 5.254392 -0.409591 -4.405168
C 4.023519 -0.613806 -3.908200
C 3.056028 -1.290270 -4.709948
N 0.006109 -0.725197 1.901575
C 3.478306 -1.728869 -5.979289
C 1.761543 -4.080827 2.214463
C 0.974403 -5.137873 2.565344
C 1.430042 -6.242493 3.317593
C 2.766218 -6.255257 3.720818
C 3.587449 -7.213676 4.523192
C 4.941876 -6.567381 4.715095
C 4.808018 -5.339768 3.856079
C 5.665465 -4.411516 3.557319
C 5.334361 -3.299935 2.797793
C 4.081217 -3.077155 2.313106
C 3.089627 -4.098232 2.596777
C 3.545289 -5.190088 3.368666
N 1.013844 -1.648807 -0.642019
H -2.562013 3.547082 2.666702
H -2.503589 4.456769 0.404000
H -0.646649 2.740663 -4.284258
H -6.488124 0.656738 5.999320
H -3.804967 0.317926 3.054765
Zn 0.000000 0.000000 0.000000
H -0.856516 6.941003 -3.538930
H -3.679134 8.057225 -4.053167
H -3.167906 7.381922 -5.381276
H -5.096474 6.335318 -5.644512
H 0.573217 0.782052 -5.026198
H -5.658099 7.142897 -4.404718
H -0.071592 2.496997 5.020363
H -6.538119 4.495059 -3.867218
H -5.999105 2.676846 -2.608548