113
P1 H44 Ir1 C62 S1 N4
P -1.395176 -0.919668 -0.021249
H 2.975620 -2.039556 3.844186
H 3.708785 -3.248901 1.822695
H 2.776900 -2.779422 -3.382150
H 1.515260 -1.179966 -4.794273
H 4.926551 -2.538630 -1.922376
H 6.263176 -4.421926 -2.311526
H 5.662099 -6.492206 -1.424485
H 0.595663 -2.129685 4.814618
H 3.698791 -6.699368 -0.181508
H 2.326562 -4.841632 0.169797
H 2.131601 1.385352 -5.216642
H 1.970647 1.741833 -7.515401
H -0.112650 1.675918 -8.563294
H -2.038478 1.311366 -7.296649
H -1.897425 1.008693 -4.986103
H -0.310058 -2.490202 -2.118830
H 0.145436 -4.744776 -2.494176
H -0.197538 -6.314638 -0.807362
H -1.118620 -5.644723 1.225312
H -1.658132 -3.407636 1.598163
H -2.894151 1.363829 -0.884675
H -4.526046 1.803713 -2.480931
H -5.227814 0.138341 -3.954860
H -4.304875 -2.011307 -3.787428
H -2.696085 -2.470024 -2.180707
H -0.884533 -1.506852 2.688301
H -2.026293 -1.350808 4.714059
H -4.200736 -0.503325 4.771078
H -5.245850 0.155829 2.794440
H -4.136972 -0.070167 0.749745
Ir 0.573875 0.409267 0.003445
C 1.744569 -0.859806 2.542427
C 2.689155 -1.870059 2.954370
C 3.089770 -2.527868 1.853713
C 2.409560 -1.940010 0.732986
C 2.622937 -2.301872 -0.598587
C 2.095161 -1.634647 -1.710161
C 2.271717 -2.035520 -3.075542
C 1.587433 -1.159788 -3.847384
C 0.988389 -0.193926 -2.967625
C 0.259720 0.929326 -3.392632
C -0.305999 1.873664 -2.531252
C -0.833056 2.524746 1.720500
C -0.393201 2.020292 3.862230
C 0.289841 1.100167 2.984596
C 1.113814 0.046867 3.399568
C 4.666618 -3.383422 -1.575738
C 5.467661 -4.503983 -1.799241
C 5.110101 -5.733507 -1.278244
C 3.488534 -3.501801 -0.846860
C 3.943862 -5.854576 -0.542888
C 3.129193 -4.748812 -0.329643
C 0.135234 1.156666 -4.860059
C 1.277860 1.375936 -5.634287
C 1.186182 1.580408 -7.004420
C -0.047402 1.549468 -7.623852
C -1.189982 1.332889 -6.869821
C -1.107423 1.145905 -5.495086
H -1.126739 3.354742 -3.863724
C -1.037579 -2.712162 -0.220168
H -1.888009 4.542563 -1.835855
C -0.487759 -3.129177 -1.438029
H -1.629915 3.599570 3.403715
C -0.202630 -4.467663 -1.654217
C -0.418998 -5.402585 -0.661849
C -0.961163 -5.001712 0.542672
C -1.276624 -3.669952 0.768157
C -2.616033 -0.597489 -1.359807
C -3.178256 0.672390 -1.469898
C -4.147314 0.934706 -2.424147
C -4.570630 -0.051334 -3.296055
C -4.019869 -1.325249 -3.195790
C -3.061328 -1.594291 -2.241763
S 2.573035 1.743313 0.023088
C -2.388614 -0.801962 1.505341
C -1.776167 -1.177276 2.700958
C -2.450225 -1.077730 3.908929
C -3.741794 -0.580002 3.942336
C -4.362977 -0.193926 2.770828
C -3.696263 -0.317685 1.553732
H -0.824826 5.870287 0.374233
N 1.581935 -0.927066 1.177880
H -2.245067 7.701120 0.730448
N 1.277234 -0.525252 -1.670438
H -4.426162 7.358091 1.456515
N -0.302149 1.834518 -1.165262
H -5.206697 5.192301 1.845274
N -0.004844 1.417099 1.690507
H -3.795645 3.345325 1.482869
H -0.361585 2.014911 4.812011
H 1.990725 1.639597 5.385526
H 2.204816 1.202403 7.673075
H 1.650236 -0.901507 8.528250
H 0.877331 -2.584367 7.087221
C -0.993205 3.076283 -2.965701
C -1.406364 3.724675 -1.859496
C -0.984907 2.951178 -0.717559
C -1.289151 3.241744 0.614298
C -1.082619 2.885263 3.096754
C -2.176300 4.426875 0.873449
C -1.717491 5.726350 0.665448
C -2.562110 6.818661 0.881631
C -3.851622 6.614189 1.313963
C -4.317140 5.328167 1.541188
C -3.477138 4.226439 1.323948
C 1.276151 -0.197962 4.862783
C 1.753917 0.785388 5.726677
C 1.886731 0.523072 7.090266
C 1.557069 -0.726630 7.598699
C 1.089977 -1.723431 6.744611
C 0.935455 -1.455734 5.391350
H 3.246675 1.468755 -0.930279