62
H36 C18 N2 O6
C 2.491251 -1.426615 1.597738
C 3.330272 -0.352816 0.967702
C 2.015793 -0.875813 -2.451406
H -2.208402 2.164190 1.710290
H -2.357161 1.549834 3.143779
C -0.356081 0.171505 3.301964
H -0.847421 -3.926409 -1.227420
C 3.070496 -0.825499 -1.389672
H -1.391884 -2.661947 -1.993985
C 1.062236 -0.213791 3.094469
C 0.653835 -2.656651 -1.815756
C 3.089776 1.506141 -0.629003
C 0.391100 2.909627 -1.611993
C -1.023893 2.647466 -1.733937
C -3.132235 -1.386894 0.160438
H -2.576507 -0.073443 -2.261959
H -3.022388 1.405514 -2.526466
H -2.923078 -0.392537 2.300508
C 2.218391 2.499173 -0.035294
H -3.874333 0.732900 1.775882
H -4.212453 0.571366 -0.771605
C -2.107273 1.351228 2.229105
H -3.294463 1.735200 -0.258302
H -2.557349 -3.298812 0.272366
H -0.452602 0.681262 4.121548
N 2.754540 0.102655 -0.307424
H -2.061774 -2.435536 1.482468
C -0.739968 -2.969125 -1.343637
O 1.178007 -0.965848 1.915035
C -2.565185 0.825583 -1.898266
C -2.969102 0.388648 1.726565
H 1.371854 -0.738112 3.848749
C -3.291462 0.834851 -0.618695
C -2.182183 -2.438184 0.521745
H 3.067156 1.614712 -1.592691
N -2.699946 -0.042990 0.313475
H -0.916545 -0.617625 3.358759
O -1.169368 1.271785 -1.762788
O 0.870924 2.316455 -0.365795
H 2.497970 3.379662 -0.328397
O -0.714740 0.947395 2.198867
H 2.926362 -1.733793 2.409332
H 1.612651 0.583283 3.033289
H 0.865544 2.525654 -2.366285
H 2.427574 -2.179996 0.990116
H 0.551400 3.866910 -1.606088
O 0.761312 -1.308775 -1.964841
H 4.224474 -0.694419 0.811321
O -0.928873 -2.293863 -0.095679
H 3.398785 0.399241 1.575156
H 2.305122 -1.476929 -3.155297
H -1.372300 3.040707 -2.550301
H -3.931949 -1.507382 0.694919
H 1.915775 0.007324 -2.840402
H -3.385891 -1.516650 -0.767749
H -1.503776 3.022170 -0.980806
H 3.911539 -0.562015 -1.794362
H 3.185794 -1.713932 -1.019284
H 0.826182 -3.098882 -2.660933
H 1.302250 -2.971773 -1.168034
H 2.314334 2.464748 0.930076
H 3.997422 1.680914 -0.337351