15
H8 C7
C 0.586212 -1.545331 0.000585
C -0.583577 1.583090 -1.760930
C 0.405453 -1.211044 1.316386
H 0.915399 -2.405647 -0.233912
H -0.060405 1.396394 -2.569880
C -0.072162 0.044108 1.656937
C -0.361670 0.952360 0.657368
H -1.537337 1.483434 -1.959615
H 0.608256 -1.841774 1.999323
C -0.191198 0.618073 -0.675386
H 0.428966 -0.878019 -1.881175
H -0.201485 0.277479 2.568875
H -0.680570 1.816460 0.886728
H -0.405757 2.500171 -1.463384
C 0.295234 -0.638341 -0.972318