99
Co1 P1 H23 C55 N4 F15
Co -0.900271 0.030447 0.457724
C 1.109977 1.382641 5.621097
C 0.023473 -2.995941 1.629171
P 0.531730 -1.645901 0.502926
C 0.765879 -3.399621 2.739102
H -4.763860 -2.726821 1.583603
C 0.351537 -4.484175 3.501370
H -4.672236 -2.963647 -0.891661
H -1.470500 -0.190365 -4.506109
C -0.794013 -5.175813 3.161022
H 0.285619 1.538731 -4.154509
C -1.533619 -4.788281 2.071062
C -1.131747 -3.698345 1.308793
H 2.678013 3.496579 0.323469
C 0.870737 -2.537092 -1.060991
H 2.179173 3.222076 2.736851
C 0.872010 -3.931133 -1.112184
H -1.773367 0.326345 5.394947
C 1.204400 -4.597205 -2.293279
H -3.432772 -1.268191 4.421719
H 1.558169 -2.931353 2.973127
C 1.530173 -3.897493 -3.424868
C 1.553079 -2.504797 -3.386333
H 0.858266 -4.750604 4.258576
C 1.220179 -1.844108 -2.218177
H -1.070920 -5.921276 3.681952
C 2.169756 -1.081153 1.059016
H -2.320564 -5.264623 1.839568
C 3.258805 -0.993689 0.195205
H -1.651202 -3.431916 0.559744
C 4.490378 -0.537530 0.666068
H 0.644478 -4.431697 -0.337539
C 4.644102 -0.154034 1.971770
H 1.206945 -5.547199 -2.312125
C 3.558617 -0.195748 2.836425
H 1.738871 -4.357689 -4.230454
C 2.321444 -0.643833 2.377094
H 1.794863 -2.010962 -4.160134
H 1.229851 -0.894114 -2.205238
H 3.161582 -1.245316 -0.714454
N -2.432548 -1.024637 0.257087
H 5.230748 -0.491780 0.073130
N -0.863494 0.355948 -1.398246
H 5.490348 0.139307 2.286803
N 0.252278 1.463377 0.877028
H 3.657876 0.080100 3.741021
N -1.442504 -0.059842 2.247424
H 1.575984 -0.650561 2.964688
F -1.563396 -3.686234 -3.167216
F -2.585254 -5.060092 -5.209309
C -3.087402 -1.431009 1.382207
F -4.809671 -4.232548 -6.376058
C -4.142855 -2.305649 1.001354
F -5.980417 -1.936954 -5.546845
F 2.430120 6.110003 -3.577885
C -4.097298 -2.428098 -0.358635
F -4.848612 -0.513309 -3.552569
C -3.023011 -1.601900 -0.840468
F 3.197213 0.809415 -2.709854
C -2.580164 -1.280301 -2.116072
F 4.856618 2.145596 -4.342966
F 0.777078 5.411367 6.163123
C -1.578413 -0.323580 -2.373725
F 4.482489 4.805847 -4.790483
C -1.145237 0.117777 -3.668457
C -0.178608 1.061043 -3.474655
F 0.757226 4.784721 -1.952367
C 0.011511 1.202331 -2.053628
F -0.238163 4.277565 3.960982
C 0.961597 1.992198 -1.399934
C 1.083762 2.118684 -0.014911
F 1.992872 3.869310 8.070483
C 2.000762 2.944883 0.700103
F 2.175101 1.200985 7.727321
C 1.722073 2.795521 2.020994
F 1.262174 0.051573 5.470893
C 0.625899 1.889932 2.152914
C 0.007694 1.498363 3.352292
C -1.015182 0.552406 3.400110
C -1.846157 0.078755 4.481631
C -2.759084 -0.795885 3.945793
C -2.511955 -0.864511 2.541081
C -3.215421 -1.969249 -3.283103
C -2.597980 -3.259679 -3.718806
C -3.211349 -3.873273 -4.798640
C -4.160671 -3.606844 -5.409017
C -4.847848 -2.407914 -5.085545
C -4.298106 -1.605937 -3.895731
C 1.917028 2.753807 -2.276402
C 2.981134 2.122721 -2.900000
C 3.839342 2.795521 -3.744684
C 3.661439 4.134393 -3.966614
C 2.623802 4.805847 -3.359893
C 1.773230 4.103444 -2.518865
C 0.489736 2.122721 4.623678
C 0.381569 3.484468 4.856015
C 0.888807 4.083260 5.999699
C 1.493014 3.305503 6.957739
C 1.594818 1.954521 6.779970