20
H14 C6
H 1.752425 -2.126720 2.152315
H 1.194042 0.134516 1.936180
H 1.060358 -1.027067 -0.114051
H 0.599828 1.271932 -0.277644
H 0.208952 -2.520964 2.309100
H -0.344883 -0.190244 2.219313
H -0.482225 -1.341254 0.168875
H -0.925442 1.021187 0.121111
H -1.266425 -0.108676 -1.921734
H 0.258002 0.173790 -2.323510
H -1.163602 1.749254 -3.359335
H -0.175747 2.499978 -2.348905
H -1.695891 2.226576 -1.926824
C 0.881157 -1.830660 2.489644
C 0.480663 -0.536151 1.792953
C 0.237929 -0.678139 0.314405
C -0.154342 0.636006 -0.365819
C -0.518005 0.530271 -1.820209
C -0.924026 1.871605 -2.418571
H 0.940375 -1.678098 3.455639