59
Ni1 H21 C33 N4
Ni 0.281707 0.136689 -0.018914
C 2.548376 -1.658885 0.497495
H 2.207334 -0.788126 7.526150
C 1.571563 -1.073033 6.908607
C 2.946259 -1.829640 -0.749525
C 1.617878 -0.599446 5.578055
H 2.299963 -0.027746 5.303591
C 2.167335 -1.407940 -1.745947
C -0.866258 0.465652 -4.690464
H -2.901987 2.892077 1.950362
H 0.097923 2.126036 -5.334857
C -0.478901 1.449618 -5.609320
C 2.413643 -1.685300 -3.228647
H -2.462000 2.450566 4.071488
H -0.699947 2.129810 -7.482833
C 1.407358 -1.052278 -3.867073
H -1.038885 0.862824 4.751681
C -0.937835 1.437354 -6.910039
H -2.022013 0.428860 -8.258491
C 0.628434 -0.364540 -2.882584
H 2.828368 -2.219264 3.647860
H -2.640942 -1.259826 -6.790707
C -1.731495 0.438294 -7.375434
C -0.451534 0.462822 -3.297263
H 4.015701 -2.923041 1.571483
H -1.927279 -1.268317 -4.612898
C -2.095695 -0.569258 -6.489394
C -1.177828 1.251504 -2.360507
C -1.518870 1.733582 1.314919
H 3.760971 -2.239076 -0.931506
C -1.674655 -0.573975 -5.179725
N -0.535742 0.793955 1.556566
C -2.184113 2.109055 -2.808002
C -2.232533 2.291131 2.183059
H 3.102044 -2.179641 -3.607526
N 1.506302 -0.910768 0.993021
C -2.849357 2.837360 -1.889145
C -1.988330 1.984526 3.421129
H 1.247363 -1.060769 -4.782946
N 1.043158 -0.550390 -1.599765
C -2.691467 2.760944 -0.680909
C -1.123093 1.068485 3.847741
H -2.388318 2.176036 -3.711941
C -1.777810 1.974149 -0.221480
N -0.954677 1.206221 -1.009072
C -0.331537 0.420369 2.863252
H -3.480917 3.445853 -2.202392
C 0.655801 -0.532465 3.245114
H -3.219872 3.261890 -0.102148
C 0.628434 -1.002278 4.674115
C 3.280986 -2.356057 1.637115
C 0.598961 -1.944735 7.287486
C 1.546301 -1.088128 2.359074
C -0.344169 -1.852282 5.103710
H -0.992570 -2.140962 4.501083
C 2.624163 -1.968320 2.776736
C -0.396799 -2.299453 6.419345
H -1.099935 -2.833418 6.708725
H 0.609487 -2.304170 8.143693