76
P1 H28 C43 N4
C -1.707567 -0.803828 2.094039
C -3.347533 -0.602669 4.753113
C -1.836043 -1.155858 -1.482629
C -1.061014 -0.150059 -2.042112
C -1.044990 0.221596 -3.408023
C -1.820740 -1.558178 6.872409
C -0.063602 1.150120 -3.583525
H -3.099871 -2.188642 2.617090
C 0.574051 1.400343 -2.345873
C 1.719876 2.171865 -2.177299
C 2.207153 2.335001 -0.894091
C 3.270869 3.133507 -0.370185
C 3.243050 3.058685 0.999470
C 2.181858 2.192717 1.336811
H -3.768579 -0.275171 4.059849
C 1.529908 1.721709 2.471926
C 1.536561 1.948627 3.844642
H -1.414388 -1.881996 7.468897
C 0.462719 1.242114 4.371033
C -0.191801 0.554000 3.314630
H -2.243825 -4.224772 -4.781466
C -1.278027 -0.308288 3.320697
H -5.642604 -2.961390 -3.140822
H -4.525415 -4.335164 -4.674216
H -3.320993 -2.765136 0.256058
C -1.943392 -2.866943 -3.319582
C 2.389837 2.814595 -3.357474
C -3.201353 -1.467410 7.005041
C 2.861271 2.023448 -4.422211
C -3.965126 -0.986589 5.937499
C 3.462383 2.631834 -5.524777
H -4.446919 -1.526286 -1.665510
C 3.602437 4.014194 -5.585089
C 3.159402 4.800435 -4.520348
C 2.568946 4.196955 -3.405943
C -2.692730 -1.808401 1.926434
P 0.374177 0.373202 0.393707
C -2.795372 -2.116273 0.616529
C -1.196811 -1.182843 5.679710
C -1.917105 -1.272384 -0.110589
H 1.669826 -1.084716 -1.771978
H -1.077468 -2.887795 -3.328961
H -4.868279 -0.937526 6.065619
H 3.874151 3.686696 -0.936054
C 1.457554 -1.081036 0.260710
H 1.586181 -1.489489 2.228889
C 1.890426 -1.758111 1.409379
H -1.633144 -0.115715 -4.035062
C 2.690808 -2.897608 1.300370
H 0.117524 1.552440 -4.403669
C 3.074560 -3.357577 0.029016
H 2.951321 -2.936858 -1.974392
C 2.655234 -2.684182 -1.110758
H -3.588197 -1.747072 7.820177
C 1.844867 -1.556951 -1.009388
H 3.680033 3.527240 1.492033
N -1.196492 -0.450572 0.797904
H 2.956396 -3.390694 2.066408
N -0.110824 0.633728 -1.316765
H -0.258841 -1.244172 5.547790
N 1.554508 1.729068 0.191539
N 0.481908 0.864326 2.113886
H 2.106921 2.472378 4.268023
H 3.152773 5.673763 -4.593735
C -2.612838 -2.064757 -2.382800
H 0.151927 1.196730 5.323258
C -4.014274 -2.135899 -2.313754
C -4.723246 -2.990828 -3.148812
C -4.054234 -3.781975 -4.073438
H 3.886550 4.410381 -6.377853
C -2.662068 -3.712059 -4.160522
H 2.753140 1.098604 -4.399047
H 2.277623 4.753825 -2.791889
H 3.784771 2.128934 -6.192967
H 3.551224 -4.138911 -0.019510
C -1.952621 -0.703248 4.599855