20
H14 C6
C -2.045254 2.196218 -1.489935
C -0.840339 1.750060 -0.443610
C -0.541448 0.278232 -0.505460
H 2.201574 -3.139571 1.412905
H 1.781847 -1.987133 2.388609
H 2.849527 -1.718780 1.273523
H -1.102706 1.983840 0.461135
H 0.035235 -2.247255 0.656921
H 1.369653 0.204146 0.351662
H 0.248142 -0.067500 1.405450
C 2.045254 -2.196218 1.489935
C 0.840339 -1.750060 0.443610
C 0.541448 -0.278232 0.505460
H -2.201574 3.139571 -1.412905
H -1.781847 1.987133 -2.388609
H -2.849527 1.718780 -1.273523
H 1.102706 -1.983840 -0.461135
H -0.035235 2.247255 -0.656921
H -1.369653 -0.204146 -0.351662
H -0.248142 0.067500 -1.405450