14
H8 C4 O2
H 0.859545 -1.630873 0.078164
H -0.360892 2.466993 -1.671668
H 0.572721 2.543020 -0.374479
O 0.036359 0.156526 0.484461
H -1.013418 2.413774 -0.211815
H 1.203735 -1.151902 2.359693
O -0.154379 -0.073456 -1.721437
H 0.393456 -2.524193 2.224256
C 0.116670 -1.272405 0.624561
H -0.728027 -1.695496 0.325456
H -0.376668 -1.178511 2.613251
C 0.354734 -1.554846 2.082624
C -0.119960 0.630936 -0.754866
C -0.240426 2.149199 -0.752921