83
Cr1 H15 C44 S1 N5 O2 F15
C -1.387997 -7.261675 1.168533
Cr 0.583401 -0.134281 -0.917573
O 4.575773 -0.300722 0.047556
O 3.562930 -2.339271 -0.794230
H 0.541227 -3.617825 -4.388719
C -0.092501 -6.835119 1.254550
C -2.368312 -6.433654 0.727287
H -0.021837 -4.922585 -2.354422
C 0.201369 -5.538722 0.884301
C -1.528203 1.951942 2.866057
C -0.886623 2.033350 4.086429
C -1.466512 2.677366 5.167158
H -0.332532 4.835240 -1.006105
C -2.699197 3.265624 5.026944
C -3.336289 3.215441 3.829704
H 0.885571 1.910680 -5.539399
H 1.021290 -0.553868 -5.797532
C -2.770982 2.538526 2.777621
C 0.541227 -1.909927 -3.122118
N -0.443575 -0.846045 0.566522
C 0.421211 -3.270167 -3.512215
N -0.154191 1.666456 -0.621590
C 0.100422 -3.981652 -2.394966
C -0.018473 -3.086999 -1.299164
F -3.027838 -4.359141 -0.112363
F -3.624551 -6.886139 0.601188
F -1.680746 -8.540229 1.512486
F 0.886692 -7.659516 1.672421
F 1.471068 -5.130009 0.950101
C -0.352722 3.940029 -0.688690
F 0.329236 1.514791 4.233374
C 0.000595 2.773272 -1.442651
F -0.799135 2.764629 6.329101
F -3.255531 3.903228 6.059064
C 0.342696 2.742047 -2.802890
F -4.558879 3.797843 3.674965
C 0.592822 1.555774 -3.469391
C 0.808178 1.272239 -4.841193
F -3.477616 2.454330 1.625405
C 0.884449 -0.082704 -4.984663
C 0.721811 -0.652282 -3.710482
C 1.269172 6.181819 -4.114174
C 0.339331 6.368612 -5.081978
F 2.205743 7.133904 -3.885016
C 0.332601 4.020322 -3.581716
C 1.292727 5.024820 -3.381849
F 2.221446 4.867022 -2.422243
C -0.601726 5.401193 -5.312193
C -0.614064 4.264267 -4.563484
N 0.281006 -1.819318 -1.785716
N 0.567025 0.353610 -2.796978
H 3.312804 -3.617825 1.367909
H 2.810308 -4.231174 3.545473
H 2.131715 -0.397743 4.558809
F 0.360642 7.493550 -5.800978
H 2.734037 0.254638 2.314722
F -1.501283 5.593004 -6.294596
H 2.460356 -2.324216 6.301195
H 2.280893 -3.807405 5.731876
F -1.576433 3.365154 -4.781126
H -1.393606 -3.065811 2.681132
H -1.635880 -0.746236 3.556788
H -1.010004 4.113161 1.265472
C 3.045853 -1.669048 1.687928
H 1.038114 -2.798168 5.740022
C 3.078381 -2.959869 2.012582
C 2.767686 -3.313938 3.297432
C 2.394179 -2.388339 4.236353
C 2.373990 -1.050123 3.910810
C 2.723942 -0.657022 2.576220
C 2.009456 -2.873442 5.625879
C -0.428993 -3.265149 0.002537
C -0.638741 -2.199595 0.902064
C -1.170399 -2.267342 2.213873
C -1.309482 -0.992412 2.699906
C -0.865312 -0.098596 1.659310
C -0.927002 1.275027 1.659616
C -0.593875 2.111134 0.604947
C -0.721742 3.547485 0.557591
S 3.482733 -1.180878 0.031804
C -0.771094 -4.654385 0.449388
C -2.053131 -5.138094 0.370679
N 2.154148 -0.254721 -0.418150