12
H6 C6
H 0.796054 -1.631424 1.473286
C -0.489642 0.922623 -0.856262
H -0.603937 0.057213 2.188352
H -1.695265 1.501694 0.708469
C 0.524967 0.078944 -1.290115
C 0.886157 -0.956480 -0.449471
C 0.490742 -0.982047 0.883243
C -0.396446 0.002246 1.281892
C -1.015132 0.935406 0.429555
H -0.850414 1.514477 -1.463910
H 0.941983 0.208053 -2.111535
H 1.403870 -1.658268 -0.780865