140
Cu2 H22 C76 N8 O2 F30
Cu 1.171424 -0.355320 -1.010257
Cu -1.195361 1.034480 0.582098
H -3.904705 1.866719 -0.002940
H 3.099365 0.110478 3.534660
H 1.749487 -4.769317 1.295207
H 0.842860 -5.345109 -0.898828
H -0.305009 -2.365881 -5.291325
C 0.557388 1.287889 7.378375
H 0.299933 -0.058157 -5.921342
H -2.956622 -0.872469 -3.545704
H -3.434919 -2.642383 -1.885424
H -2.690017 -2.666691 3.606548
H -1.742926 -0.968181 5.130981
C 3.942457 -1.401164 -2.490914
H 3.317449 -1.651839 -3.202790
C 1.462270 2.143220 -2.533471
C 2.293310 3.202130 -2.137462
H -4.188431 1.682891 2.207237
F -2.339174 3.361650 7.917123
C 1.846694 2.232855 -0.262242
F -0.259763 2.316413 9.312616
F 4.790487 -2.254977 2.125444
F 5.967979 -3.645080 4.092904
C 1.822623 2.232855 -4.980568
F 1.762360 -4.526239 5.938228
C 2.075379 1.483870 0.884913
C 2.734893 1.597813 2.148634
C 3.434329 2.295144 -6.788126
C 2.739305 0.345960 2.687515
C 3.009005 3.531805 -7.131220
C 2.110864 -0.562545 1.765093
C 2.008298 4.151654 -6.439610
C 2.026152 -1.952648 1.792084
C 1.430124 3.510535 -5.347552
C 1.539596 -2.713787 0.722165
C 1.483633 -4.154026 0.621507
C 1.000798 -4.468508 -0.570457
F 4.432616 1.704160 -7.448260
C 0.756111 -3.222732 -1.286544
C 0.361781 -3.087520 -2.603328
C 0.351730 -1.867571 -3.322325
C 0.051262 -1.703493 -4.712535
C 0.364227 -0.434928 -5.051830
C 0.808667 0.241133 -3.881224
C 1.270296 1.550717 -3.762356
C -0.420479 2.445549 2.970663
C 0.069040 3.717152 3.410483
C 0.926318 1.596294 -1.255466
C 0.048762 4.555772 2.325201
C -0.391749 3.808306 1.209602
C 2.651785 -2.677325 2.957202
C -0.615413 4.279270 -0.096226
C -0.825413 3.388996 -1.142577
F 1.578127 0.772867 8.064993
C -1.460078 3.577382 -2.382238
C 2.540894 -3.926140 5.029751
C 1.921227 -3.227290 3.965591
C 0.037207 -4.319623 -3.398733
C 0.913249 -4.793625 -4.332387
C 0.611120 -5.864689 -5.152845
C -0.585531 -6.498211 -5.000703
C -1.457483 -6.103209 -4.050653
C -1.144072 -5.010876 -3.256478
C -1.527772 2.334644 5.948390
C 2.837458 1.641871 -5.713422
C -0.815524 5.734701 -0.296299
C -1.973526 0.153017 -1.946641
C -1.829024 6.418359 0.352293
C -2.704847 -0.869431 -2.630313
C -2.109233 7.735539 0.123397
C -2.965346 -1.832628 -1.716029
C -1.363535 8.422235 -0.797741
C -2.417561 -1.431549 -0.446477
C -0.335425 7.787193 -1.464250
C -2.541891 -2.007341 0.831130
C -0.081005 6.451782 -1.239729
C -2.104003 -1.376857 1.990404
C -3.938720 2.516953 1.756916
C -2.282018 -1.847821 3.349768
C -1.769741 -0.924123 4.182478
C -1.265483 0.149979 3.354645
C -0.723627 1.351697 3.787526
N 2.534281 3.246188 -0.804583
C -0.576998 1.925969 -1.060674
C -1.471866 1.433736 -2.149429
N -0.651949 2.506318 1.622851
C -3.229396 -3.335156 0.968611
N -1.862458 2.424279 -2.958970
C -4.557136 -3.493157 0.695395
C -5.215421 -4.723740 0.883445
O -3.316403 2.216144 0.524168
C -4.478698 -5.790246 1.388573
C -3.182978 -5.668707 1.663974
C -2.537104 -4.448758 1.458824
C -0.600446 1.571986 5.268204
C 0.433350 1.037214 6.013999
F 3.590994 4.177481 -8.173189
F 1.574757 5.350334 -6.801487
F 0.444623 4.122789 -4.706603
F -2.578653 2.866378 5.289222
N 1.674033 0.183402 0.709692
N 1.068076 -2.189649 -0.465785
N 0.775706 -0.668891 -2.822549
F -2.621631 5.772682 1.222427
N -1.789897 -0.246543 -0.639116
F -3.129873 8.344754 0.737013
N -1.473547 -0.167542 2.041973
F -1.634232 9.716627 -1.066009
F 0.436546 8.469331 -2.342678
F 0.917495 5.879029 -1.892454
O 3.457020 -0.266293 -1.820569
F 0.584118 -3.157405 3.938299
F 2.102757 -4.192007 -4.500629
F 1.476304 -6.280960 -6.067182
F -0.910605 -7.537371 -5.797903
F -2.623078 -6.739770 -3.906690
F -2.037512 -4.652336 -2.344361
F 3.316937 0.447749 -5.380599
F -5.287193 -2.457036 0.243788
F -6.504641 -4.825529 0.622486
F -5.144244 -6.934233 1.586341
F -2.503265 -6.700270 2.169404
F -1.260562 -4.359123 1.785028
F 1.354122 0.271518 5.439620
H 4.075323 -0.138677 -1.234370
H 4.818868 -1.200625 -2.879253
H 4.028061 -2.142553 -1.855641
F 4.462215 -4.767798 6.018136
C 4.014366 -2.798864 3.052058
C 4.647897 -3.512907 4.089310
C 3.881607 -4.052237 5.033409
H 3.095398 2.386298 2.535297
C -1.429794 2.608107 7.302878
C -0.380255 2.068777 8.002741
H 2.654473 3.832614 -2.749669
H 0.356470 3.938961 4.289678
H 0.286430 5.474911 2.323454
H -1.593511 4.431194 -2.777270
H -4.742073 3.053244 1.596082
H -3.315508 3.021340 2.321851