12
H6 C6
C 0.327872 -0.466907 1.256843
H 1.338413 -0.486689 -1.817388
C 1.144418 -0.748094 0.163281
H -0.562745 0.785011 -2.077736
H -1.890734 1.292278 -0.289244
C 0.804043 -0.288869 -1.081898
H -1.368709 0.443065 1.794260
C -0.335241 0.468499 -1.233458
H 0.553612 -0.776354 2.104476
C -1.132387 0.763816 -0.175274
H 1.920401 -1.246883 0.278836
C -0.807885 0.270679 1.071076