65
H20 Au1 C37 N4 F3
C -2.703577 4.662991 1.898929
C 3.380618 -0.850749 -1.119155
H -4.803800 -1.176305 2.424906
C 0.942863 2.102770 -0.574192
H 2.165418 -4.380068 -2.474322
F 3.112652 -8.454904 -1.174328
H 5.183452 4.669367 -0.306360
C 2.108463 1.367180 -0.911685
C 3.029635 -2.151779 -0.970341
C 3.310422 2.154572 -1.300800
F -5.622620 6.769346 2.201114
H 3.119588 -6.495986 -2.803880
H 5.540740 2.471761 -3.696022
C 1.637473 -2.227291 -0.613759
C 3.775106 3.198386 -0.488594
H 1.848063 -7.653565 0.862045
H 3.693350 1.182685 -3.044757
F 6.562373 4.432273 -2.430840
C 0.859215 -3.388854 -0.339757
H 0.952741 -5.513738 1.231354
C 4.870299 3.964858 -0.859688
H -4.751258 1.320159 2.303144
Au -0.513611 -0.345718 0.191821
C -0.452242 -3.352991 0.171581
C 1.465134 -4.721365 -0.580323
C 0.691921 3.508601 -0.748503
C -3.500539 5.739081 2.246780
H 4.246096 -0.532763 -1.346659
C 5.486936 3.676559 -2.049458
C -2.963767 -1.137852 1.359347
C -1.438987 -4.358550 0.455347
H -0.974513 4.627527 -0.258322
C 2.110985 -5.034369 -1.788253
H 3.609282 -2.895738 -1.083614
C 5.084672 2.652869 -2.882707
C -4.127895 -0.648920 2.015071
C -2.566967 -3.749278 0.990508
H -1.336004 -5.290591 0.300634
H 1.286910 4.139391 -1.135410
C 2.671296 -6.290970 -1.992342
C 3.988428 1.894765 -2.489714
H -3.359936 -4.186806 1.276445
C -2.313292 -2.352413 1.033355
C 2.563269 -7.224006 -1.002209
C 1.920571 -6.976551 0.197718
C 1.382327 -5.709789 0.407600
C -4.096160 0.733002 1.946130
N -2.277984 -0.030083 0.934209
C -2.913746 1.129089 1.249534
C -3.213448 3.587101 1.175970
H -4.917292 2.898132 0.267365
C -2.380967 2.389874 0.870034
N 1.199480 -0.909524 -0.573262
C -4.560634 3.617983 0.774599
H -6.287596 4.715192 0.856083
N -1.046601 -2.179075 0.528833
C -1.126676 2.566997 0.251065
C -5.373359 4.693674 1.115550
H -3.149767 6.464510 2.750040
N -0.182595 1.568411 0.001007
C -0.554805 3.774983 -0.259216
H -1.789970 4.657413 2.158412
C -4.821034 5.730116 1.840468
C 2.229730 -0.038850 -0.876017
H 3.331859 3.384276 0.330743