12
H6 C6
C -0.840451 -0.164704 -1.074376
C -0.632679 1.091167 -0.567473
H 0.383748 2.047970 0.814726
H 1.322272 0.368418 1.959082
H -0.383748 -2.047970 -0.814726
H 1.013540 -1.777074 0.825597
H -1.322272 -0.368418 -1.959082
H -1.013540 1.777074 -0.825597
C 0.218420 1.247203 0.509664
C 0.840451 0.164704 1.074376
C -0.218420 -1.247203 -0.509664
C 0.632679 -1.091167 0.567473