76
Fe1 H29 C40 N5 O1
Fe -0.271953 -0.632077 -0.436353
C 2.801949 -2.093508 -0.575869
C 2.528859 -1.123058 0.424190
C 3.343907 -0.853295 1.572381
C 2.706994 0.080666 2.328071
C 1.491068 0.422756 1.654474
C -4.237706 1.951845 -1.668808
H -1.492612 3.357131 2.387903
H -3.309766 3.248530 0.610239
C -5.310255 1.883427 -0.784680
H -3.783739 0.164288 -3.933738
C -6.524285 2.503534 -1.081556
H -2.217638 -1.627614 -4.797583
C -6.688372 3.232240 -2.255029
C -5.611886 3.308260 -3.128209
C -4.406472 2.676208 -2.848272
C -7.995446 3.910991 -2.579666
C 4.104957 -2.813527 -0.561942
C 4.163806 -4.200350 -0.665741
C 2.023157 -3.149101 -2.795402
C 5.386092 -4.866069 -0.684525
H -5.226989 1.369749 0.065906
N -1.022990 -1.750006 0.508134
C 6.582876 -4.173200 -0.607685
C 6.523285 -2.783119 -0.527205
H -7.238854 2.412310 -0.489397
C 5.310141 -2.110884 -0.502496
H -3.710732 2.738110 -3.502440
N -1.031421 1.021794 0.184838
H -5.688578 3.802391 -3.939921
N -1.345465 -0.439638 -1.990547
C 7.912349 -4.883445 -0.586958
O -1.568700 -2.568960 1.126692
C 1.797308 2.829334 3.689761
H 0.742710 -3.289196 -4.444554
C 0.865567 3.381023 5.851345
H 2.742267 -3.701876 -2.995745
C -0.223647 2.582812 5.553188
H 4.169998 -1.290954 1.773843
C -0.314543 1.919265 4.338934
H 2.990644 0.435788 3.179061
C 0.939293 4.107557 7.165907
H -8.689596 3.541751 -2.026240
H 3.334505 -4.700997 -0.724111
H 5.364412 -5.776138 -0.743455
H 7.315730 -2.257495 -0.486553
H -8.239932 3.791531 -3.504852
C 0.088076 -2.017488 -2.848038
H 5.333679 -1.128054 -0.471029
H 2.460022 2.922730 3.051246
H -7.932079 4.866672 -2.428860
H -0.910924 2.466610 6.148485
H -1.048758 1.391469 4.219289
N 0.697118 -1.696684 -1.672378
N 1.399339 -0.322567 0.485612
C 0.528747 1.354219 2.070538
C -0.634987 1.676001 1.346512
C -1.574778 2.717476 1.637356
C -2.539451 2.676208 0.670782
C 1.872050 3.490709 4.901275
C -2.216209 1.610841 -0.219497
C -2.955516 1.247031 -1.381265
C -2.507101 0.265720 -2.246990
H 7.881747 -5.786998 -0.924919
C -3.015083 -0.198437 -3.513297
H 0.150012 4.606032 7.299569
C -2.160134 -1.151946 -3.983864
C -1.115787 -1.294212 -3.022718
H 8.603181 -4.396917 -1.043378
H 1.668562 4.703772 7.185001
H 1.062029 3.509171 7.904113
C 0.690885 2.039811 3.382310
H 8.192582 -5.005077 0.357565
C 0.915214 -2.929729 -3.564518
H 2.605348 4.073891 5.034199
C 1.898961 -2.360665 -1.598377