12
H6 C6
H -0.198209 -2.296132 0.239656
H 0.872757 -1.405687 -1.620330
H -1.112328 -0.889254 1.844621
H -0.876608 1.426645 1.613128
C 0.135976 1.344907 -0.143164
C -0.520150 0.839620 0.956264
H 0.234622 2.284890 -0.238195
H 1.087781 0.882966 -1.853178
C 0.645301 0.521339 -1.093223
C 0.517480 -0.826093 -0.956083
C -0.124138 -1.353672 0.143110
C -0.655142 -0.526389 1.094297