73
Mn1 H20 C37 N9 O6
C -2.500448 3.929704 1.566524
C -0.003482 7.002290 3.141765
C 4.672608 -2.421576 -3.408899
H -0.220520 -4.683581 -0.448947
H -4.965012 -0.015814 2.513029
C -2.740115 1.716196 1.465397
C 0.760780 7.853054 2.365754
C 4.371995 -2.226032 -4.739856
N 5.363838 -2.618679 -5.759630
H -4.363272 -2.421576 2.344065
C -3.397915 2.930335 1.778965
H -4.293840 3.027327 2.080404
H 1.492127 -3.670355 -1.927301
C 1.284346 7.482057 1.143075
N -3.570209 -8.278022 1.205402
C 3.191915 -1.654296 -5.154404
C 0.997876 6.224618 0.660696
C 2.292647 -1.205705 -4.195362
N 0.502083 0.269967 1.935504
O 0.397422 9.635811 3.818795
N 0.901187 3.582436 0.015109
C 3.763826 -1.995329 -2.467729
O 1.902802 9.873270 2.279343
C -3.064129 0.358300 1.616518
C -4.162435 -0.374340 2.155632
C -2.531049 -1.768608 1.437761
N 0.781867 1.176675 -0.658333
C -2.316325 -4.241919 1.197825
O -4.510107 -8.571944 0.466478
O 6.415084 -3.109531 -5.397420
C -3.833277 -1.687204 2.057969
N -1.467974 1.963180 0.995641
C -1.788388 -2.862719 1.010154
H -4.064973 -3.938817 0.209941
H -1.506290 -7.184604 2.380598
H -0.765686 5.124791 3.188056
O -2.935038 -9.091893 1.866986
O 5.071454 -2.421576 -6.928254
C -0.617565 -2.705626 0.233310
C 2.361307 1.490342 -2.340833
H -0.765686 -4.972827 2.315608
H -4.790148 -6.169646 0.232554
H -0.341382 7.282876 3.984902
H -2.650626 4.858062 1.698222
C -3.528293 -4.603909 0.623869
C -0.006310 -3.760420 -0.509141
C 2.133212 2.680232 -1.785232
H 3.945377 -2.135795 -1.544502
H 1.828998 8.081332 0.645687
N -2.085915 -0.483630 1.201192
C 1.162712 2.504953 -0.737527
C 0.930759 -3.211026 -1.316803
C -3.969055 -5.923700 0.642069
C -2.007483 -6.524708 1.916971
C -0.263721 5.732727 2.659382
H 1.342977 5.954424 -0.182863
H 5.485729 -2.838991 -3.147907
N -0.029711 -1.500666 -0.113015
C 0.909930 -1.803595 -1.068284
C -0.060055 3.977162 0.824191
C -1.574436 -5.217040 1.877719
H 2.942476 1.310905 -3.070766
C -3.180363 -6.862450 1.271599
H 2.993906 -1.567695 -6.079738
Mn -0.375069 0.291098 0.692621
C -1.285395 3.321769 1.105036
C 1.643590 -0.848911 -1.790275
C 0.203270 5.334365 1.401625
C 2.577831 -1.358642 -2.845067
H 2.541315 3.500166 -2.036523
H 1.479269 -0.795219 -4.465554
N 1.038507 9.213028 2.857862
C 1.560015 0.526651 -1.624087