69
P1 H19 C37 N4 O2 F6
P -0.455756 -0.635499 0.102522
C -0.288318 -2.844129 -1.851736
H -2.199674 0.582111 -0.523838
C -3.664467 1.766106 6.619851
C -2.265061 -2.478099 1.004077
O -1.573201 0.040412 -0.928041
C -1.714748 -3.064494 -0.152318
H 0.901507 -2.140704 0.966119
O 0.731802 -1.239199 1.089033
C 2.290141 -0.324249 -2.907209
H 3.127705 1.524576 -2.534501
C -2.656630 0.819906 6.622766
C 0.705156 -2.231589 -2.601276
H 0.746543 3.875136 1.694721
F 3.385854 2.877642 1.496731
H 2.768641 -0.645459 -3.663244
C 0.615390 -2.568984 -5.100129
F -3.920158 2.479865 3.095460
H -3.669947 -1.687524 3.710191
C 2.264817 -3.734304 -3.915556
F -0.464449 -1.759111 -5.101623
C -3.154974 -1.749774 2.913492
H -0.878695 3.067131 3.366444
F 1.270965 3.704073 -2.605727
C -0.581428 2.587806 2.603693
H -3.651049 -3.611049 2.132621
C -1.902784 0.491226 2.903565
H -0.893814 -4.681749 -2.728547
F 2.859163 -4.064104 -2.740433
H -2.471807 -4.913319 -0.812756
C -2.498831 0.959346 4.191013
C 3.202353 3.656016 0.399090
H 3.526456 -4.848579 -5.048018
C -3.150816 -2.806779 2.047420
H -4.794385 2.983716 5.422649
H 4.622546 5.026761 0.915052
C -3.499486 1.917996 4.261414
H 0.704967 -2.790594 -7.114739
C 2.166925 4.048191 -1.653206
H 2.834784 5.687856 -2.661176
H 2.532415 -4.247244 -7.084826
C -1.001155 -4.064229 -2.015039
C -1.872736 -4.192464 -0.962074
H 4.384430 6.302886 -1.031177
C 2.783193 -4.257204 -5.069602
F -1.137600 -0.508509 5.421484
C -4.102525 2.332581 5.430260
C 3.994184 4.777761 0.247685
C 1.104473 -3.044574 -6.290965
C 0.505214 1.993941 0.725313
C 2.190737 -3.901134 -6.269529
C -1.000210 1.290516 2.225449
C -2.103293 0.433956 5.421639
C 1.568989 0.946896 -1.201304
C 2.934945 5.172426 -1.869023
C 3.847724 5.529741 -0.905312
N -1.744985 -1.236834 1.238822
C 1.412701 2.023821 -0.329774
C 2.490083 0.864726 -2.289095
H -4.061138 2.031291 7.441400
C 1.190081 -2.865294 -3.867670
N 0.827049 -0.215934 -1.158300
C 1.243374 -1.010244 -2.235517
H -2.350859 0.442671 7.439283
N -0.743763 -2.250264 -0.693071
C -2.260904 -0.761244 2.424233
N -0.325926 0.936936 1.037444
C 0.316421 3.027291 1.692558
C 2.252911 3.237696 -0.525274