67
Cu1 H12 C37 N5 O2 F10
H -1.457321 1.699994 -3.572798
N 1.181196 -1.428295 1.906948
C -1.013177 0.785532 -1.693845
C -1.013011 0.999368 -3.108997
H 3.648251 -2.989295 3.179177
C -0.257479 0.013208 -3.668089
H 2.560939 -1.394333 4.786874
C 0.223831 -0.822008 -2.617984
H -1.708548 4.126399 0.035289
C 1.105124 -1.925149 -2.774922
F 0.002143 -1.635842 5.790200
C 1.780083 -2.497473 -1.718502
F -0.319852 -0.800625 8.278965
C 2.676395 -3.632060 -1.629886
H -5.010029 3.342754 -3.196184
H -3.662441 1.593076 -2.435815
C 3.027729 -3.777971 -0.317956
F 0.650730 2.858480 4.398528
C 2.357112 -2.747787 0.418668
C -1.422110 1.414460 0.681052
F 0.289467 3.659734 6.923625
C -1.635975 1.577982 -0.710082
F -0.214243 1.847163 8.881338
H -1.913678 1.843389 3.767291
H -2.948577 2.549047 1.644439
C 2.221938 -2.297474 1.760535
C 1.373814 -2.423260 -4.161543
C 2.912408 -2.416970 2.996052
C 0.398945 -3.086150 -4.910603
C 2.312309 -1.541502 3.881822
C 1.241479 -0.893706 3.177165
C 0.632573 -3.551557 -6.187458
C 0.365380 0.133962 3.537735
C 1.851209 -3.349042 -6.770630
C -0.500959 0.769180 2.603027
C 2.842330 -2.696215 -6.069060
C -2.536045 2.683638 -1.155829
C 2.593001 -2.248418 -4.786096
C -2.370925 3.970425 -0.626607
N -4.927094 5.892430 -2.554411
C -3.164603 5.014446 -1.059812
C -4.117052 4.767906 -2.034503
C -4.332178 3.499986 -2.550328
C -3.528629 2.469802 -2.094409
O -4.556503 7.029532 -2.284067
O -5.899579 5.642116 -3.226680
N -0.386140 0.673583 1.225775
N -0.273379 -0.355344 -1.416213
N 1.661552 -1.984268 -0.454214
C -1.616987 1.601881 2.897394
C -2.184093 1.993074 1.739096
C 0.291862 0.577986 4.957306
H -3.059196 5.886140 -0.695729
C 0.069532 -0.310061 6.006466
C -0.100079 0.100000 7.308795
C -0.031197 1.443391 7.630831
C 0.221292 2.350306 6.618730
Cu 0.473689 -0.729053 0.293871
C 0.386624 1.918861 5.332179
H -0.083018 -0.098741 -4.594459
F -0.820966 -3.284891 -4.386042
H 2.967733 -4.174196 -2.353044
H 3.607699 -4.439604 0.039456
F -0.342603 -4.180485 -6.857127
F 2.073327 -3.755330 -8.019908
F 4.046995 -2.482379 -6.634593
F 3.583107 -1.595590 -4.153113