12
H4 C6 Cl2
H -2.007596 -1.150996 -1.317526
H 2.519129 -0.855641 -0.159761
C 0.679806 -0.007549 0.129957
C -0.664780 -0.102979 -0.203553
C -1.089114 -1.081133 -1.086939
C -0.161902 -1.961207 -1.636292
C 1.170357 -1.886984 -1.279674
C 1.601719 -0.911481 -0.400784
Cl 1.253983 1.239929 1.190810
Cl -1.827139 0.979088 0.478840
H -0.447507 -2.618771 -2.259668
H 1.791893 -2.509053 -1.639126