11
H5 C5 N1
H 0.379132 -0.761708 2.036619
C -1.234136 -0.117730 -0.470485
H 1.718419 0.992218 -1.230718
C -0.286482 0.541956 -1.196278
H -2.091537 -0.269562 -0.850080
H -0.516948 0.969530 -2.013160
N -0.989164 -0.534832 0.703905
C 1.276825 -0.002546 0.520730
C 0.234083 -0.454553 1.148408
H 2.153566 -0.063628 0.882762
C 1.025407 0.583841 -0.724688