20
H14 C6
H -2.739816 0.434555 3.071194
H 2.739816 -0.434555 -3.071194
H -2.984788 -0.390925 1.723071
H 2.984788 0.390925 -1.723071
H -1.913036 -0.905759 2.792901
H 1.913036 0.905759 -2.792901
H 1.319947 0.675392 -0.002760
H -0.465769 1.029668 2.284866
H 0.465769 -1.029668 -2.284866
H -1.547190 1.547992 1.204347
H 1.547190 -1.547992 -1.204347
H 0.149884 1.071553 -1.011519
C -1.166839 0.746946 1.644735
H -1.319947 -0.675392 0.002760
C -0.564080 -0.312391 0.530725
C 0.564080 0.312391 -0.530725
C -2.312727 -0.113438 2.379062
C 2.312727 0.113438 -2.379062
H -0.149884 -1.071553 1.011519
C 1.166839 -0.746946 -1.644735