15
H8 C7
C -0.765744 1.443027 1.738558
H 1.048440 -1.414632 -2.154256
H 0.920612 -2.467153 -0.067955
C -0.398646 0.401968 0.764564
H 0.012700 -1.326763 1.761917
C -0.323260 1.026603 -0.475759
H -1.231991 1.032334 2.495551
C 0.215915 0.348482 -1.561997
H -1.349167 2.100136 1.308923
C 0.679704 -0.952364 -1.410622
H 0.047935 1.888103 2.058255
C 0.604318 -1.576999 -0.173010
C 0.065143 -0.900789 0.915939
H 0.268358 0.776367 -2.410686
H -0.639554 1.914846 -0.580814