113
Ce1 B1 H47 C53 N10 O1
C -2.172858 7.432205 1.825372
C -2.597422 8.835323 2.163844
C -0.877889 6.999036 2.044470
H -1.859339 -7.761159 1.129215
H -4.931586 -6.099638 -0.864751
H 0.117039 -6.560270 1.558650
H -3.903955 -9.040692 0.819454
H -5.132507 -8.391563 0.025072
H -3.864109 -8.945819 -0.777716
H -1.805334 9.410800 2.220363
H -3.064533 8.836571 3.023972
C -2.275686 -6.995936 0.753001
C -1.622059 -5.765087 0.840639
C -3.506594 -7.144486 0.140436
C -4.096915 -6.012256 -0.419601
C -0.271670 -5.663973 1.473106
Ce 0.667832 -0.175587 0.720058
H -0.497441 -2.365898 -3.860985
H -2.709513 1.359104 4.749003
B 4.350785 -0.443477 1.164807
H -2.931937 -3.805217 2.963344
C -4.159232 -8.498919 0.044021
H -2.275329 3.572384 3.678641
H 2.122535 3.073054 -0.534360
H -1.208355 -4.147258 -2.269624
H -2.922944 -1.807897 4.498925
H -0.757177 4.609742 -1.437065
H 1.834163 -3.003792 -1.518854
H 4.151930 -3.974989 -1.738179
H -0.363262 3.104262 -3.366742
H 5.171344 -0.871653 3.932794
H 5.598827 -2.610570 -0.241100
H 1.188586 -1.027694 4.326045
H 4.487951 3.896949 -0.362142
H 5.800706 2.003240 0.595070
H 0.309722 -5.108468 0.911649
H -0.354657 -5.258267 2.359508
H -3.960147 6.806794 1.123796
H -3.673054 -3.201028 -1.675175
H -5.084801 -3.838922 -1.274053
H -4.320286 -2.878960 -0.247103
H -4.580647 4.714602 0.341488
H -3.410755 3.903190 -0.390436
H -3.856210 3.502478 1.095578
H 5.341565 -0.512135 1.283097
H 1.464115 5.336267 1.210146
H 1.344542 5.820618 2.730036
H 0.960930 4.317634 2.338071
H 2.143153 1.708635 -6.241948
H 1.655270 1.502661 -3.969856
H -1.685798 -0.557075 -4.841691
H -1.194601 -0.401034 -7.102247
H 2.722085 0.792364 -8.331921
H 2.006692 1.169358 -9.712439
H 1.999240 2.210462 -8.496749
C -1.027933 3.342692 1.077431
C -1.684119 -2.648020 1.678586
C -0.309207 0.291786 -2.690243
C -0.706839 2.870825 -0.211081
C -0.662666 -2.257294 -2.931019
C -1.609709 -3.287162 0.408548
C -2.195351 1.513896 3.963777
C -2.478717 -2.983819 2.815349
C -1.643168 -0.891626 3.063040
C -2.249129 -4.627863 0.283843
C -1.404736 4.784508 1.276004
C -2.714003 5.203945 1.033513
C -1.968284 2.728516 3.367472
C -1.146503 -2.645523 -0.756790
C -1.042716 -3.235981 -2.053969
C -1.519332 0.528968 3.189769
C 2.853773 2.573724 -0.191735
C -2.466532 -1.884045 3.668962
C -0.374687 1.480191 -1.937939
C -0.557477 -1.018955 -2.173264
C -0.658551 3.666009 -1.396341
C 2.609323 -2.677979 -1.076697
C -1.187991 2.495080 2.197661
C -3.500599 -4.756441 -0.348967
C 3.889343 -3.235981 -1.203647
C -0.447713 2.842114 -2.456343
C 4.239013 -0.867908 3.751997
C 4.670093 -2.479496 -0.387655
C 3.245911 -1.061398 4.685670
C 2.058661 -0.949049 3.954465
C 4.159864 3.041846 -0.108777
C 4.867845 1.999495 0.417157
C -3.070637 6.523425 1.304030
C -0.486138 5.682053 1.788341
C -4.206364 -3.565538 -0.938028
C -3.728963 4.247728 0.470620
C 0.947690 5.251381 2.038175
C -0.047350 0.429102 -4.148027
C 1.370915 1.230526 -5.961520
C 1.070405 1.106942 -4.605135
C -0.892441 -0.111423 -5.115406
C -0.605943 -0.012805 -6.465151
C 0.532366 0.650055 -6.893857
C 1.963064 1.260486 -8.738138
N -1.130198 -1.405936 1.887811
N -0.505539 1.545104 -0.554244
N 2.768859 1.326647 0.275306
N 2.310383 -0.715612 2.662466
N 4.037240 0.970875 0.641760
N -0.810486 -1.296084 -0.847908
N 3.687602 -0.673169 2.548820
N 2.621866 -1.639373 -0.259438
N -0.876444 1.154379 2.148474
N 3.925758 -1.518285 0.176567
O 0.732499 0.688753 -8.257405
H -3.196047 9.172370 1.466490
H -0.236339 7.615709 2.378763
H 3.343415 -1.231171 5.615106