62
H36 C18 N2 O6
H -3.435061 -0.551101 1.065777
N 2.512066 -0.843606 0.060613
C -1.346693 -1.768095 2.534120
O 1.336044 1.437324 1.504797
H -1.482390 3.807128 -1.062811
H -1.540087 2.487383 -1.905339
O 1.009885 0.098497 -2.284169
O 0.099032 -2.367518 0.801026
H 3.984019 -0.813982 -1.298074
C 0.353170 3.320063 0.503126
H 2.802563 -1.765426 -1.695926
H 0.895514 -1.780105 -2.908031
H -2.734150 0.174826 3.180565
H -1.950756 1.358460 2.514444
H -3.362478 2.608815 -0.429202
H -2.375938 2.668864 0.788901
C -2.699605 -1.143585 -1.508792
H 0.845875 -0.727245 -4.078914
C -3.135005 0.276242 -1.229894
C 2.530981 -2.187104 0.679355
H 0.501335 4.226137 0.191285
C 3.283824 0.125452 0.854107
H -1.564025 -1.884190 3.471301
C -0.938958 -0.906057 -3.105259
H -2.100412 -2.072344 2.004931
C -3.146511 0.366983 1.189772
C -1.407508 2.842339 -1.012779
C 2.466173 0.723274 1.979587
H -0.272288 -3.494840 2.385291
C 1.630354 2.732917 1.009497
H 0.630493 -2.243150 2.705285
C 1.303455 -2.985090 0.341642
C 2.431986 0.190839 -2.189873
C -2.237090 0.439042 2.390240
C -2.499651 2.308570 -0.103013
H -0.309673 3.342748 1.210699
C 3.018191 -0.900720 -1.312319
H 3.317658 -2.667497 0.375243
H 2.594587 -2.093695 1.642782
C 0.549632 -0.914064 -3.175171
H 4.063131 -0.317576 1.227671
H 3.595236 0.836700 0.273998
N -2.488664 0.836567 -0.039249
C -0.131057 -2.555405 2.190945
H -3.189653 -1.483863 -2.273856
O -1.305575 -1.232724 -1.770998
H -2.916373 -1.700040 -0.744453
O -0.098980 2.499659 -0.565722
H 3.027140 1.322431 2.495590
H -4.096947 0.294924 -1.106855
H 2.168432 0.012026 2.569664
O -1.083221 -0.395640 2.262396
H -2.922505 0.830028 -1.996598
H 1.995998 3.288037 1.717061
H 2.280515 2.678205 0.291308
H 1.379155 -3.865810 0.740402
H 1.254450 -3.098516 -0.619885
H 2.815529 0.126787 -3.079369
H 2.671498 1.056880 -1.824054
H -1.306603 -1.557256 -3.722765
H -1.280469 -0.030675 -3.342040
H -3.935003 0.906090 1.354608