62
H36 C18 N2 O6
C -0.546623 1.704481 3.332439
N -1.125591 1.943171 2.006231
C 1.346588 -3.197707 -1.349489
H -4.256768 1.555136 0.903407
H 0.792630 4.413654 0.874396
C -2.591142 1.764743 2.087462
H -3.060068 2.333303 0.169848
N 1.061481 -1.941636 -2.060668
H 0.092367 -2.204693 3.104083
H 1.240298 3.176972 1.790308
C -3.276399 1.576097 0.772858
H 1.292818 -1.657095 4.015851
H 2.436998 -1.892903 -3.497946
H -0.974284 3.928937 2.295925
C 2.248177 -1.397706 -2.662850
H 3.010964 -1.541811 -2.047406
H -1.419451 3.535924 0.812230
C -3.135096 -1.230020 -1.554637
H -3.240136 -1.940064 -0.874541
C 2.166897 2.778718 -0.517708
C 2.156893 0.069545 -2.983212
H 2.993457 0.376095 -3.415058
H -3.696557 -1.463208 -2.333370
H 2.767122 2.314962 0.120115
H 1.660456 2.595312 -2.507435
H 1.405360 0.234610 -3.605701
C 0.034845 -2.183733 -3.097597
C 2.089367 -3.003821 -0.065554
O 0.812638 2.678892 -0.069284
C 0.613813 3.462561 1.079544
H 2.436998 3.729810 -0.567855
C -0.357802 0.263431 3.650315
H 3.201035 2.246840 -2.217327
C -3.581514 0.061684 -0.995143
H 2.346964 -3.884171 0.306613
O -2.839985 0.351728 0.186840
C -1.364431 -2.340938 -2.552609
H 0.276186 -3.003821 -3.597412
H 2.914678 -2.482423 -0.232159
C -0.807972 3.297496 1.551591
H -0.023927 0.166488 4.575345
C 1.889292 -2.168012 2.126419
O -1.777086 -1.148011 -1.953328
H 0.044849 -1.429147 -3.738321
H 1.878038 -3.784608 -1.939652
O 1.951816 0.774611 -1.780921
H -1.224378 -0.208185 3.580689
H -3.445213 0.779589 -1.661977
H 0.491267 -3.656223 -1.156360
H -1.136845 2.107975 4.015851
H -2.980038 2.556010 2.536300
C 0.905172 -1.641374 3.106984
H -4.546877 0.017143 -0.783364
O 1.267809 -2.313951 0.858647
H -1.983413 -2.579366 -3.286582
H 0.331207 2.160377 3.385902
H -2.779963 0.976096 2.656488
O 0.567545 -0.303032 2.748079
H 2.655830 -1.544431 2.055550
H -1.381937 -3.074563 -1.885775
H 2.231921 -3.043122 2.432690
C 2.278188 2.144656 -1.875828