15
H8 C7
H -1.638439 1.983201 1.023658
C -1.085322 1.318658 0.681823
C 0.248448 1.313320 0.992875
C 0.556732 -0.668299 -0.347867
H 1.059309 -2.100136 -1.719277
H 2.315262 -1.407570 -1.086168
H 1.511811 -2.475109 -0.265854
C -0.793421 -0.645614 -0.644299
C 1.064204 0.324512 0.475592
H 1.970260 0.324512 0.683808
H -1.153982 -1.304819 -1.192306
C -1.612905 0.343194 -0.138251
C 1.441931 -1.762527 -0.905963
H -2.518857 0.349866 -0.348860
H 0.603499 1.969857 1.547644