20
H14 C6
H -0.477616 0.942798 0.934391
C 0.111386 -1.821866 0.761139
H 1.043396 -1.772585 1.097452
H -0.483680 -1.675666 1.535678
H 0.085401 -3.781607 1.022716
H -0.077441 3.784669 -0.917028
C 0.050753 3.101306 -0.227417
H 0.952447 3.190011 0.153058
C -0.087835 1.790431 -0.815115
H -0.614473 3.216295 0.479180
H 0.566997 1.685298 -1.548889
C 0.120048 0.747316 0.166647
H -0.997324 1.701725 -1.202385
C -0.087835 -0.665406 -0.193446
H 1.047727 0.834380 0.496165
C -0.105159 -3.149168 0.299133
H 0.500301 -0.841174 -0.971382
H -1.017247 -0.734399 -0.526362
H 0.490773 -3.333150 -0.458420
H -1.035436 -3.247730 0.013777