93
H22 Rh1 C49 N6 F15
C 0.387833 0.128959 -3.732897
C 0.585322 -1.144133 -3.294671
C 0.592251 -1.145776 -1.840712
H 0.699657 -1.906346 -3.848398
H 1.036601 -4.109207 1.250649
H 0.696193 -3.190937 3.479147
C -0.419447 0.956880 3.353454
C -0.797102 1.998352 4.243494
C -0.979866 3.149885 3.479147
H -4.208118 -1.668155 1.552991
C -0.749462 2.819702 2.130498
H -5.269189 -1.385610 -0.519240
C -0.226289 3.043109 -3.831412
C -1.416420 3.452141 -4.283227
C -1.619973 4.161788 -5.462020
C -0.506931 4.480472 -6.168617
C 0.723044 4.096080 -5.832304
C 0.835648 3.378220 -4.622937
C -0.157861 -0.919083 4.922914
C -1.344527 -1.188486 5.510613
C 0.944786 -1.145776 5.673673
C -2.509539 -0.684177 1.009455
C -3.780225 -1.195057 0.849791
C -4.416002 -0.997933 -0.362973
C -3.821802 -0.248862 -1.337941
C -2.577968 0.258733 -1.069570
C 2.447609 1.116222 1.964040
C -4.478367 0.018898 -2.635633
C 3.703570 1.609032 2.300353
C 4.419034 2.371245 1.386533
C 3.878538 2.642290 0.133003
C 0.721312 -2.218459 -0.913304
C 2.622577 2.149480 -0.199913
C 4.516913 3.457069 -0.920098
N 1.907112 1.387267 0.713907
N -0.467953 2.522373 -0.172736
N 0.399093 0.137173 -1.446648
C 0.676271 -2.172463 0.486302
C 0.829584 -3.204079 1.444284
N 0.452796 -1.012717 1.186104
F 1.831755 4.391766 -6.515121
N -0.423778 1.489115 2.106718
C 0.638159 -2.706341 2.663843
F 2.088144 3.046394 -4.218682
N -1.892819 0.048467 0.085444
C 0.329799 -1.301832 2.538150
F -2.555447 3.148242 -3.638797
F -2.840420 4.508397 -5.893452
F -0.656780 5.142480 -7.347411
F 2.182558 -0.886229 5.197400
F -2.509539 -0.986434 4.834590
C 1.867268 -4.081281 -2.190613
C 1.814431 -5.321519 -2.788503
C -1.468391 -1.679653 6.828687
C -0.325033 -1.868564 7.508107
C 0.878091 -1.638586 7.005337
C 0.766353 -3.568758 -1.541767
C 0.679735 -6.065662 -2.764723
C -0.394328 -5.636918 -2.102289
C -0.333695 -4.337542 -1.490811
H -1.114990 5.474305 0.588215
H -0.748595 5.150693 -1.850903
H 0.339327 0.421360 -4.636525
H -0.905374 1.922788 5.184491
H -1.218065 4.007374 3.808665
H -2.050464 -0.864874 1.821362
H -2.166532 0.795895 -1.735402
H -3.891963 0.575774 -3.189361
H -5.325491 0.487068 -2.482764
H -4.651603 -0.828735 -3.094242
F 2.000660 -1.834067 7.710235
F 2.974246 -3.360136 -2.277919
F 2.942197 -5.760120 -3.430555
F -2.690571 -1.881706 7.345047
H 1.959083 0.595486 2.592504
F -0.428975 -2.333448 8.785417
H 4.073429 1.423407 3.156422
H 5.277419 2.707998 1.614139
H 2.252718 2.335105 -1.055982
H 3.922713 3.507993 -1.698034
F 0.696193 -7.263191 -3.345627
H 5.365769 3.044752 -1.181674
F -1.498707 -6.359706 -2.037744
H 4.684085 4.360554 -0.576991
F -1.463194 -3.951508 -0.879333
Rh 0.012777 0.716717 0.388805
C -0.099827 2.338391 -2.526926
C -0.041793 -0.388491 3.540295
C -0.743398 3.414359 0.805629
C -0.902776 4.651312 0.160180
C -0.700956 4.478829 -1.181674
C -0.406454 3.108817 -1.388898
C 0.270898 0.933882 -2.564294