10
H6 C3 O1
C -0.492233 -0.479312 -1.264868
H 1.959210 -0.103791 -0.197682
C -0.046346 0.033850 0.055314
H 1.362207 -1.240079 0.758550
C 1.315566 -0.290804 0.518514
H -1.367215 -0.098555 -1.485812
H -0.559395 -1.456266 -1.230368
O -0.777674 0.733277 0.695498
H 0.158874 -0.222731 -1.952767
H 1.531980 0.255273 1.302668