16
H10 C4 O2
H 0.491465 -1.947039 -0.188151
H -0.243306 1.863019 -2.399997
H 1.130906 1.106680 -2.715228
H -0.470630 -2.632472 0.890737
O 0.174531 -0.834984 1.422166
H 1.105974 -2.563929 1.154198
O 0.247128 0.504209 -1.058098
H -1.448858 0.286525 1.676404
C 0.577995 1.499976 -2.007429
C 0.338938 -2.093816 0.768184
H -1.526588 -0.677808 0.400837
C -0.929678 -0.080772 0.919010
H -1.242066 1.562847 -0.281854
C -0.464764 1.042391 0.042678
H 1.076642 2.219917 -1.566812
H 0.123346 1.650299 0.558252