16
H10 C4 O2
C -1.587135 -0.549787 1.560117
H -1.488478 -1.405113 2.029143
H -2.117213 0.064883 2.109618
H 1.216362 -0.143584 -2.629391
H 2.423015 -0.856355 -1.856280
O 1.298114 0.179846 -0.801331
C 1.478952 -0.603436 -1.804899
H 0.930015 -1.409711 -1.692509
C -0.274278 0.118532 -0.731167
H -0.612051 -0.793509 -0.561172
H -0.703746 0.492546 -1.543959
C -0.446740 1.009113 0.446171
H -1.289241 1.521083 0.426625
H 0.326352 1.619185 0.581756
O -0.464284 -0.059277 1.352202
H -2.039858 -0.698472 0.704868