16
H10 C4 O2
H -0.363482 0.566759 -3.096784
O 0.341837 -0.408484 1.384102
O 0.348713 0.566759 -1.285658
H -0.166522 0.855092 2.802924
C 0.148661 -0.070683 2.738634
H 0.995601 -0.161140 3.222830
C -0.831834 -0.169620 0.617466
H -0.518365 -0.669963 3.132119
C -0.555501 -0.428272 -0.799064
H -1.122617 0.768875 0.734865
C 0.510527 0.483369 -2.658891
H -1.561483 -0.760420 0.929786
H -0.156457 -1.328605 -0.905295
H -1.399377 -0.400004 -1.317702
H 0.909050 -0.381630 -2.888078
H 1.098955 1.205614 -2.963590