70
Ni1 H29 C35 N5
C -7.313781 0.508859 -5.720962
H 4.489097 -1.046664 5.643777
H 6.867488 0.358655 2.650672
C -1.016670 0.781423 2.298597
H 5.034336 0.512522 1.275740
C -0.539500 1.201260 3.558265
H 6.308474 -0.075836 6.965677
C 0.819351 0.910378 3.587880
H 7.735279 -0.801209 6.947768
H -4.923452 1.264272 -0.186958
C 1.185407 0.308099 2.341969
H 6.407191 -1.637952 6.634083
H 8.483692 -0.536704 3.779823
C 3.619355 -0.127125 2.607037
H -4.023521 1.747122 2.095148
H -5.249448 2.132522 -5.242603
C 3.513751 -0.587993 3.940630
H -3.443846 3.178817 -4.188679
C -2.884028 0.039198 -1.990687
H 8.986459 -0.357193 5.290455
C -3.019822 0.395290 -0.631981
H -2.275312 2.091491 -4.082133
C 4.603081 -0.714018 4.761931
H 8.349391 0.884001 4.503483
C -4.052906 1.049591 0.126659
H -2.969774 2.650541 -2.751906
C 5.895814 -0.354995 4.314346
C -3.561388 1.311898 1.389893
C 6.014045 0.109537 2.983864
C -2.228249 0.804869 1.433225
C 4.916794 0.207719 2.168882
H 1.407061 1.083295 4.315440
C 6.848548 -0.768238 6.532617
C 8.310019 -0.086827 4.633541
C -3.117735 2.400690 -3.688870
H -6.753160 -1.358061 -3.900972
C 2.455527 -0.058251 1.745431
C 2.582252 -0.366718 0.335102
Ni -0.246448 -0.128884 -0.098579
C 3.668943 -0.738197 -0.515049
N 0.029615 0.246112 1.619359
C 3.174210 -0.942620 -1.796860
H 4.576336 -0.830517 -0.249407
C -4.972926 -2.014560 -2.038402
H 3.678700 -1.179282 -2.567053
C -4.057842 0.180609 -2.916647
N 1.478574 -0.384449 -0.466986
C 1.783678 -0.730870 -1.739283
H -5.264370 -1.753719 -1.141021
C -5.040076 -0.815863 -2.957567
N -0.514936 -0.444384 -1.829535
C 0.558095 -0.767505 -2.574894
H 0.628804 -1.225442 -4.652805
N -1.960221 0.255784 0.237481
C -6.083262 -0.684710 -3.867639
H -1.847156 -0.817328 -4.658239
N 6.988703 -0.458305 5.117934
C 0.098487 -0.977057 -3.904171
C -1.270235 -0.749920 -3.905119
H -5.559373 -2.721616 -2.379204
C -6.176010 0.401884 -4.730111
H -4.051070 -2.345741 -1.998587
C -1.660053 -0.396026 -2.574164
C -5.196531 1.383702 -4.660339
H -7.228379 -0.197464 -6.396293
H -7.283477 1.384435 -6.159291
C -4.137734 1.297976 -3.758387
H -1.048237 1.603512 4.253211
H -8.167338 0.409944 -5.251093
H 2.655946 -0.818794 4.278469