20
H14 C6
H 0.898235 0.273727 -1.326986
H 1.487037 1.275321 -0.224071
H -1.400611 0.992071 -0.633633
H -0.694048 2.148431 0.253215
H 0.489596 2.811294 -1.504356
H -1.054375 2.790853 -1.926818
H -0.083103 1.602372 -2.384754
H 0.607356 -2.906262 1.675395
C -0.269305 -2.512049 1.488351
C -0.137454 -1.533815 0.559580
H -0.873205 -3.204112 1.146512
H -0.639697 -2.129516 2.310701
C 0.593265 -0.409577 0.614403
H 0.176574 -1.995191 -0.259545
C 0.720084 0.688381 -0.446589
H -1.056388 -1.230125 0.366086
C -0.590379 1.549810 -0.527211
H 1.520252 -0.707427 0.798223
C -0.288429 2.236034 -1.665601
H 0.291315 0.054719 1.436753