108
Co1 P1 H29 C61 Br1 N4 O1 F10
Co 0.000738 -0.631542 -1.358377
C -1.840418 -4.976679 -0.210660
C -3.828632 4.122215 5.231114
H -2.207629 3.772965 -0.613019
C -5.734677 2.715739 1.065443
C 2.992879 5.590292 -4.558385
C -0.592221 3.422043 -1.864964
C 1.203561 2.029782 -2.989212
H -0.273366 0.227507 2.280287
H -4.085954 -0.840033 1.498001
C -2.195323 2.914474 3.932865
H -6.104748 3.742305 2.792224
C -1.588814 3.738124 6.069195
C 1.641505 2.227123 0.704499
H -3.468133 -3.212033 1.170132
C -3.077799 -5.344883 -0.730937
C 3.515727 5.004120 -3.432986
C 0.613835 -4.649170 -2.066287
H 1.005784 2.348650 0.008207
H -5.005848 1.626737 -0.495101
C 1.539696 -4.040422 -2.873882
C -0.646296 -1.183429 3.697029
C -3.062882 -7.415854 0.437889
H -4.698802 4.483730 5.346156
P 1.444101 -0.607655 0.289140
C 0.988381 -2.764391 2.131020
H -6.599502 2.836429 0.692707
H -0.375300 4.277469 -2.217855
C 1.338313 3.891705 -4.684931
H 4.084943 1.796763 3.473848
H 3.152618 -0.073522 2.438470
C -1.825625 -7.110365 0.946950
H -0.950855 3.848223 6.764049
C 2.195804 3.337309 1.338093
H 0.483682 -5.584034 -1.967639
C -3.487774 3.434307 4.064588
H -1.219365 -0.642134 4.227373
C -2.870823 4.261581 6.210409
C 1.772155 0.794167 -3.275091
C 0.407853 -3.256073 3.298409
H 2.170569 -4.474685 -3.434424
C -0.375300 -2.478692 4.076668
H -3.091474 4.729013 7.008513
H 0.566970 -4.156931 3.551501
C 3.114952 3.182892 2.349600
C 2.880876 -0.974102 -4.158039
H 1.935623 4.210573 1.069470
H -0.739528 -2.824597 4.883112
Br 0.486293 2.338894 4.632896
N -1.526162 -1.197366 -0.407669
C 2.936070 3.841255 -2.952398
H 1.536588 -3.326313 1.595787
N -0.544113 1.167388 -1.460016
C -1.564947 1.746312 -0.724610
C 4.014956 -0.448416 -0.724035
N 0.379635 -2.404271 -1.806005
C 2.813500 0.390007 -4.180472
C -4.169366 3.074466 2.829900
H 3.505658 3.945779 2.760587
C -2.437354 -0.365911 0.226787
H 3.472094 -1.520136 -4.662498
O -2.014079 2.253324 2.737291
H 3.848754 0.486727 -0.713681
C -1.231174 -3.653543 -0.543994
H 3.357729 0.968932 -4.702763
C 5.216164 -0.923931 -1.224468
F 0.268750 3.379119 -5.312197
C 0.076194 2.193676 -2.163498
F -0.030588 -5.637829 1.155176
C 3.290602 -2.698053 -0.303844
F -3.716877 -4.516216 -1.572470
C 4.531216 -3.160189 -0.763437
H 5.856360 -0.313231 -1.570744
C -1.598262 3.147214 -0.984605
C 5.488403 -2.269644 -1.221879
H 2.618085 -3.315164 -0.040685
C -1.230801 -5.903460 0.614766
F -1.210788 -7.965791 1.780429
N 1.243092 -0.343891 -2.718863
H 4.717681 -4.092823 -0.759698
C -3.229706 2.356455 2.078388
H 6.327495 -2.587676 -1.533355
F -3.666780 -8.558373 0.800559
F -4.859037 -6.874837 -0.983742
C -2.443943 1.019661 0.095639
C -0.082799 -0.667498 2.540282
C -0.122453 -3.616472 -1.398756
C 2.014187 0.949699 1.084138
C -3.363837 -1.164475 0.972259
C 1.835305 3.261494 -3.555506
F 3.465879 3.288531 -1.849433
C 1.909766 5.042028 -5.192554
F 1.430303 5.616214 -6.308461
C -1.242735 3.056627 4.909859
C 0.761764 -1.451011 1.753107
C 3.465506 1.909927 2.762600
C -5.446402 3.258149 2.307609
C -1.875970 -2.497367 -0.074910
C 2.915932 0.796676 2.142812
F 3.576763 6.698526 -5.047601
C -3.026211 -2.459460 0.792506
F 4.585539 5.545137 -2.835631
C -3.676228 -6.549558 -0.429815
C 3.048073 -1.323910 -0.233668
C 1.378714 -2.631994 -2.715987
C -4.773885 1.992432 0.350170
C -3.484417 1.791188 0.843412
C 1.891120 -1.425646 -3.228499