89
Ni1 H35 C45 N6 Cl1 O1
Ni 1.249707 0.570525 -1.027234
C -1.951467 -2.350406 3.890507
C -4.171956 -1.589342 5.370551
C -4.549948 -1.658263 -1.192050
C -2.923864 -1.557081 3.331804
H 3.245726 0.822893 -10.217083
H 3.395664 2.411008 -10.084946
C 0.220328 0.016370 3.566302
H 1.948503 1.756992 -10.292788
C -0.465994 -0.228519 1.164512
H 3.468276 -0.306239 -8.180028
C -2.087450 -2.775663 5.200159
H -2.216884 -0.867871 -3.966715
H -0.441905 -0.061349 -5.554246
H 1.261500 3.415495 -4.550511
C -1.205304 -0.442614 -1.002714
C -3.603884 -1.351785 -0.081342
H 0.451627 3.889144 -5.845486
C 0.449988 0.215801 2.102913
H 1.939496 4.424382 -5.591743
C 0.747302 -1.152354 5.592348
H 1.828092 3.340709 -8.109510
C -1.810294 -0.803350 1.152704
H 4.471758 2.689625 -4.036189
H 3.135563 -0.882535 -4.641444
C 3.208147 1.768723 0.349240
H 2.912851 -1.757979 -5.962824
H 5.179383 3.163274 -1.697845
C -4.025466 -1.156753 4.062933
C -3.204351 -2.406129 5.916244
C -0.887654 0.572138 5.634133
C 0.962481 -0.977852 4.233153
C -2.266387 -0.904532 -0.167926
C 1.904853 -1.869426 3.465845
C -0.707248 0.796497 4.262241
C 2.627959 1.626482 2.516678
C -1.533897 1.856708 3.569254
C -0.374931 -0.636180 7.785409
C -0.161605 -0.401555 6.308060
C 2.850433 1.567826 -3.201641
C 2.264845 1.305340 -5.626628
C 2.660736 1.529700 -8.374773
C 2.827455 1.639680 -9.875126
C 1.888807 2.487261 -6.269451
C 0.709774 0.448960 -3.840095
N -3.964983 -1.549749 1.195451
N -0.202379 -0.084812 -0.217176
C 3.056281 0.400568 -7.697644
C -1.376676 -0.488073 -3.735636
N -2.855723 -1.218342 1.950903
N 2.109513 0.991529 0.472868
C -0.877361 -0.259314 -2.437477
H 4.323956 -1.049706 -5.700778
C -0.391822 -0.042286 -4.605201
C 1.337553 3.655986 -5.497339
Cl -3.403772 -2.993718 7.544368
C 2.873328 0.261260 -6.324238
C 3.537608 1.952024 -1.093467
C 2.092636 2.553250 -7.649058
C 4.039542 2.381680 -3.249175
C 3.353245 -0.964654 -5.593743
C 1.957093 1.111774 -4.159962
C 4.437774 2.630969 -1.961594
N 0.342849 0.293521 -2.536282
N 2.627651 1.336134 -1.849964
O -4.180324 -1.442702 -2.329523
H 4.338577 2.724819 1.869545
H -6.364367 -2.407596 -1.694018
H -6.359156 -1.655331 -0.281589
H -5.719261 -3.115869 -0.412429
H -1.189980 -2.602628 3.381874
H -4.926904 -1.328322 5.882566
H -1.417905 -3.319699 5.599755
H 1.247557 -1.816635 6.049801
H -4.679012 -0.587788 3.672906
H -1.519266 1.097110 6.111241
H 1.917296 -1.598141 2.525202
H 1.602867 -2.799126 3.534553
H 2.805918 -1.790240 3.840733
H 2.616078 1.726198 3.461675
H -2.137754 2.276099 4.218921
H -2.060691 1.444648 2.853560
H -0.941198 2.537119 3.189311
H -1.063485 -0.021756 8.117255
H 0.463585 -0.477808 8.264739
H -0.665477 -1.560014 7.930732
C 3.592530 2.185182 1.636899
C 1.698715 0.905011 1.761939
C -5.857718 -2.259489 -0.866922