20
H14 C6
H -0.966488 -0.664075 0.747328
H -0.660932 -0.962025 -0.756226
C -0.685011 -0.260075 -0.086691
H -3.259821 -0.196950 -1.377873
H 0.966488 0.664075 -0.747328
H 0.660932 0.962025 0.756226
C 0.685011 0.260075 0.086691
H 3.259821 0.196950 1.377873
H -1.697166 1.482175 0.147365
H -1.438938 1.138775 -1.345765
H 1.697166 -1.482175 -0.147365
C -1.743664 0.765075 -0.505379
H -3.634293 1.254925 -0.917163
H 1.438938 -1.138775 1.345765
C -3.155201 0.454500 -0.680089
H -3.512237 0.103525 0.141605
C 1.743664 -0.765075 0.505379
H 3.634293 -1.254925 0.917163
C 3.155201 -0.454500 0.680089
H 3.512237 -0.103525 -0.141605