15
H8 C7
H 2.233057 0.622451 -1.803830
C -1.647883 -0.180600 0.206066
H -1.273039 0.818698 -1.531462
C -0.862535 0.399886 -0.782664
H -2.595361 -0.158989 0.133227
C -1.048692 -0.792463 1.297737
C 0.337301 -0.825802 1.403632
H -1.585011 -1.190076 1.974896
C 1.122649 -0.243355 0.414902
H 0.747674 -1.243497 2.151874
C 0.523458 0.368508 -0.679987
C 1.396066 1.121570 -1.658795
H 2.070025 -0.265810 0.487180
H 1.613564 2.007399 -1.294629
H 0.929642 1.224116 -2.511081