12
H6 C6
H -1.441922 -1.017733 -1.540200
C -0.858010 -0.606386 -0.913898
C -0.064506 0.460282 -1.296817
H -0.109663 0.780528 -2.189244
C 0.793072 1.066289 -0.398831
H 1.335683 1.793850 -0.677825
C 0.862448 0.611491 0.914810
H 1.446661 1.026014 1.538726
H 0.097130 -0.781800 2.195080
H -1.330367 -1.801768 0.665913
C 0.058593 -0.463382 1.301407
C -0.791389 -1.068218 0.393962