74
Mn1 H17 C39 N4 O1 F12
Mn 0.490185 0.176754 -0.702772
C 0.247143 5.781649 -0.693993
F 1.044152 -2.035440 6.589927
H -1.419709 8.585890 -0.802607
N 0.384627 1.648560 -1.912043
C 2.899993 1.901161 0.579429
N 0.177422 -1.537802 0.126715
C -1.161501 1.862462 2.680508
C 0.693057 1.401588 -3.228501
N -0.479955 1.217590 0.609891
C 1.001426 0.050630 -3.468593
H -1.370492 3.851010 2.175320
F -3.185225 -0.493096 3.565744
C -0.280902 -6.471966 -2.974479
N 0.918755 -0.723533 -2.337742
C 2.645981 2.180852 2.027956
C 2.020801 -5.050646 -2.643361
F -3.549095 7.224430 -0.397119
C -0.700346 2.588074 0.593887
H 0.592440 2.720637 -4.890088
F 1.432950 -1.404113 4.037957
F -1.513585 -4.715193 -2.056774
H -0.189115 4.448123 -3.262546
C -0.781026 4.872214 -0.477380
F -3.110854 4.600264 -0.134892
H 0.169008 -4.700645 0.521082
C 0.466533 2.597749 -3.956675
C -0.036429 2.934609 -1.769122
C -2.290417 6.766723 -0.483210
C -2.317141 -1.224689 5.623214
H 3.026390 0.053374 0.155575
C 0.374742 -2.806964 -0.413565
C -1.259088 7.653289 -0.715655
H 0.931681 -7.920588 -3.742608
C 2.058560 -6.318928 -3.179688
C -0.025096 -1.690840 5.843099
C 0.178316 -1.358378 4.523791
F 1.515627 5.345929 -0.799933
C -0.609563 -0.600223 2.271347
C 0.771362 -3.052353 -1.743962
O 2.392488 0.603327 0.190204
C -2.051107 5.406969 -0.350832
H 1.370662 -0.538497 -5.481738
F -1.440122 -7.138474 -3.152109
H 2.465913 2.600916 0.029908
C -0.867970 -0.944823 3.701275
C -0.224046 -1.683804 1.440207
H 3.874193 1.937292 0.405266
H -0.468012 -3.467280 2.584875
H 1.389866 -2.880669 -4.608521
C 0.029461 3.545883 -3.059552
F 1.060268 7.951802 -1.048089
C 0.109192 -3.755977 0.609805
F 3.189034 -4.400145 -2.459579
H -1.411771 1.830992 3.596661
C -0.746428 0.745459 1.888051
H 1.680505 2.180676 2.196013
C -0.503947 3.408676 -0.533144
H 3.018083 3.056829 2.261732
H 3.072848 1.488240 2.574133
C 0.006295 7.136125 -0.816484
C 0.907603 -7.050697 -3.362921
H -1.406099 -1.879253 7.327783
C 1.013924 -2.040893 -2.689215
F 3.255930 -6.852451 -3.499247
C -2.115407 -0.880089 4.294692
C -1.137331 2.972429 1.900957
C -1.271392 -1.639827 6.418788
C -0.314961 -5.219515 -2.416095
C 1.241480 -0.806033 -4.579053
C 0.834399 -4.454324 -2.242004
F -3.562577 -1.152568 6.131511
C -0.246613 -3.078739 1.746222
C 1.250932 -2.093665 -4.095267