20
H14 C6
H -0.787359 -0.277903 0.912183
H 3.088022 -1.387558 1.169417
H 2.808571 -0.960219 -0.347290
H 1.689803 -1.750230 0.480546
H -3.575785 0.104403 -1.367171
H -1.905556 1.415703 -0.316396
H -1.335243 0.807564 -1.681562
H 1.144656 0.928324 -0.790593
H 0.511085 1.683567 0.467024
H 1.458802 0.078198 1.910200
H 2.575353 0.866645 1.084000
C -2.864596 -0.348977 -0.869198
C 2.404180 -1.081660 0.537257
C -1.639063 0.576649 -0.768540
C -0.475788 -0.055148 -0.000682
C 0.766676 0.794814 0.114666
C 1.838571 0.209677 1.005544
H -3.184141 -0.565503 0.032416
H -2.613576 -1.173907 -1.333345
H -0.231886 -0.905350 -0.446401