77
Ga1 H7 C40 N4 O1 F24
C -3.035497 -0.262577 0.805271
C -4.204453 -0.600359 0.036399
C -2.401609 -1.105153 -1.158362
H -4.368758 -1.419742 -1.873899
H 4.550840 1.399540 0.832923
H 0.464071 2.382804 4.350978
H -1.897800 1.753520 4.389219
C 2.204322 -0.938142 -2.181209
C -3.953790 0.693597 2.923427
C -6.245910 1.263088 4.429668
C -5.756635 -0.002281 4.384907
C -4.640703 -0.301696 3.654564
C -5.648175 -0.508579 0.430054
C -3.806767 -1.116437 -1.171100
C -1.326650 -1.415100 -2.064474
C -1.136243 -1.878517 -3.399388
C 0.223121 -1.826608 -3.649511
C 1.963300 1.457934 2.074291
C 0.871470 -1.333099 -2.480113
C 0.613577 1.332299 2.516724
C 3.341946 -1.231539 -3.117813
C 0.015842 1.870194 3.688604
C -1.273626 1.536925 3.704826
C 3.930040 -2.508944 -3.156179
N 1.729509 0.139152 0.015162
C 4.976075 -2.824158 -3.919341
N -0.360152 0.662752 1.833623
C 5.530426 -1.813067 -4.717540
N -1.941257 -0.608635 0.025864
C 5.000177 -0.541680 -4.713894
N -0.097438 -1.115685 -1.569033
C 3.886656 -0.270852 -3.908931
O 0.318084 -2.150850 1.205189
C 2.914132 2.341886 2.847881
F 2.946670 0.835029 4.647896
C -2.242534 -2.339677 -4.294564
C 3.356407 1.947681 4.106627
C 0.854599 -2.214043 -4.952345
C 4.262650 2.737596 4.802269
C 4.727823 3.920964 4.242552
F -6.431015 -1.005849 5.009990
C 4.286752 4.315169 2.983050
F -4.200838 -1.567817 3.580711
C 3.380510 3.526006 2.286891
F -5.996934 -1.347393 1.406496
C -4.462347 1.990562 3.034141
F -6.006816 0.737230 0.840050
C -5.568638 2.290730 3.772940
F 6.624666 -2.062830 -5.464319
F 3.422929 -3.486182 -2.395787
F 5.520785 -4.042884 -3.946556
F 5.513554 0.443081 -5.470345
F 3.373279 0.974205 -3.942278
F -6.444271 -0.776397 -0.600653
F 3.009336 3.920964 1.101639
F 4.744694 5.463931 2.452467
F -2.025614 -3.568183 -4.829374
F 5.595502 4.683796 4.892200
F -3.414865 -2.474339 -3.609801
F -2.493197 -1.522679 -5.298767
F 4.648285 2.435924 6.008231
F 1.603695 -3.337227 -4.841218
F 0.007647 -2.399109 -5.918896
F -3.851597 2.991873 2.382772
F 1.720109 -1.291723 -5.392189
F -6.038631 3.554594 3.834612
Ga -0.037183 -0.543862 0.316662
F -7.354370 1.521879 5.124873
H 4.649924 0.173156 -1.293032
H -0.021564 -2.162992 2.046629
H -0.117515 -2.843447 0.818460
C 2.580316 -0.230228 -1.033161
C 3.877015 0.286602 -0.750428
C 3.826400 0.957654 0.404119
C 2.469446 0.883929 0.873873
C -1.558032 0.791396 2.510220
C -2.789654 0.364842 2.072223