51
Co1 B18 H25 C6 O1
Co -0.381537 0.581879 -0.186985
H 1.037889 -2.564995 -2.625961
H -1.036519 -3.542236 -0.723207
B 0.477517 -0.167639 -1.953804
B 0.183235 -1.302485 -0.577757
H -3.568164 -2.048829 -1.361187
B -1.581765 -1.131348 -0.099094
H -1.744032 -2.907508 -3.532975
H 2.146256 1.328403 -0.874844
B -2.250086 -0.502727 -2.833792
B -0.565532 -0.665242 -3.299147
H -1.298485 -0.351830 2.208807
B 0.212113 -1.902243 -2.258858
H 0.020968 4.199050 2.228680
H 2.536110 3.553544 0.915170
B -1.038582 -2.492779 -1.115425
B -2.550555 -1.599250 -1.495640
B -1.468315 -2.101284 -2.806732
H 1.279227 -0.228477 3.608772
B 1.542567 1.376307 0.066533
H -0.780742 1.942772 3.877723
B 1.058516 -0.055065 1.069448
H 2.092626 2.618218 3.693226
C -2.145575 0.033917 -1.184533
B -0.506401 0.377030 1.900040
C -1.031019 0.559065 -2.190575
B 0.286371 3.146599 1.955324
C -0.813058 1.947203 1.349117
B 1.799032 2.746002 1.158351
C 0.306311 2.488398 0.348343
B 2.294085 1.093554 1.655997
B 1.037201 0.481101 2.776028
C 1.398177 -2.634216 1.329542
B -0.194242 1.776904 2.939130
C 1.960612 -3.760559 0.524039
O 1.268226 -1.433263 0.476667
B 1.521940 2.200974 2.825726
H -2.853087 0.590681 -0.958205
H 3.368074 0.789483 1.749026
H -1.127279 1.479301 -2.505983
H -1.711716 2.322411 1.233012
H 0.027844 3.160731 -0.285061
H 0.510520 -2.888347 1.686505
H 1.994990 -2.439247 2.094050
H 1.356235 -3.963791 -0.221576
H 2.055497 -4.553011 1.092904
H 2.838643 -3.503913 0.172817
H 1.457308 0.320024 -2.190458
H -2.004622 -1.302724 0.924071
H -3.048358 -0.223687 -3.567890
H -0.262312 -0.489554 -4.362667