144
Co1 B18 H75 C44 N4 O2
C 3.925391 -1.346757 -0.374882
C 2.888424 -2.047571 0.297615
C 2.662752 -3.417091 0.236218
B -3.326498 2.257830 -3.788011
C 1.938384 -4.226797 1.106064
B -3.807187 0.803151 -4.688168
C 1.775003 -5.656346 1.012723
B -4.546801 2.359741 -5.096584
C 0.999489 -6.059803 2.062225
B -3.741029 2.992149 -6.526750
C 0.681561 -4.898294 2.841357
C -0.123410 -4.806155 3.967190
C -0.432434 -3.644646 4.697470
B -4.065496 1.255470 -6.385100
C -1.459710 -3.597181 5.740211
C -1.454034 -2.307236 6.199600
C -3.609744 -4.824304 5.239946
C -0.440249 -1.592461 5.421018
C -0.156171 -0.241090 5.612691
C 0.611661 0.581180 4.819549
C -3.513601 -0.881874 6.483184
C 0.754878 2.009334 4.873611
C 1.503883 2.403018 3.801970
Co -1.428267 3.072701 -4.156975
C 1.853507 1.223361 3.045267
B -2.063380 1.027914 -4.241278
C 2.637710 1.159143 1.902053
C 4.907275 1.030707 -0.242278
B -1.266335 1.698016 -5.737892
C 4.494390 1.746877 -1.522116
C 4.809713 -1.948452 -1.413995
H -1.521224 5.754921 -4.590942
C 4.098744 -2.089453 -2.764841
C 2.347043 -6.503745 -0.094209
B -2.504067 1.827848 -7.012822
C 1.462013 -6.554003 -1.319893
B -2.548731 0.477873 -5.900086
C 0.504035 -7.446075 2.380094
H -0.869033 6.626052 -1.858792
C -0.907249 -7.697363 1.876165
H 1.245206 6.443171 -3.905691
C -2.366571 -4.716808 6.140335
B 0.417287 4.093628 -4.532262
B 0.501715 2.636158 -3.478982
C -2.398539 -1.670639 7.173644
B -0.397987 4.230440 -1.211251
H 1.823830 5.523177 -1.185966
C 0.117494 2.872089 5.932365
C -1.334237 3.225288 5.627457
B 1.626981 3.997301 -3.252722
C 1.810586 3.806043 3.347504
B 0.903192 3.205744 -1.827806
C 1.035515 4.182975 2.098346
C 0.700476 -1.127578 0.946431
B 1.095785 4.984304 -1.845627
C 0.284150 -0.090317 -0.104533
C -1.157313 -1.345361 -1.557058
C -2.065479 -0.844181 -2.625845
N 2.189294 -1.166667 1.145525
N 1.277674 -3.828924 2.236792
N 0.159081 -2.421711 4.497743
N 1.308518 0.165159 3.708162
O -1.050613 -0.320664 -0.542814
H -3.517658 4.504065 -4.650841
H -2.568654 4.404946 -2.249805
H -3.639773 2.407206 -2.723981
H -4.401991 -0.013535 -4.204942
H -5.622553 2.591484 -4.887213
H -4.271660 3.651082 -7.260752
H -4.820655 0.736141 -7.026947
H -1.530193 4.000093 -6.567906
H -0.200859 1.463480 -5.991691
H -2.220333 1.707788 -8.089038
H -2.308511 -0.562180 -6.241703
H 0.725775 4.083856 -5.609960
H 0.859622 1.640778 -3.848740
H 2.711966 3.888409 -3.507610
C -3.248892 3.459824 -4.958708
H 1.251797 5.105760 1.846902
C -2.091538 3.172239 -6.065473
C -0.689145 2.898614 -2.285313
C -1.489624 4.291866 -2.528249
O -1.388949 0.180516 -3.333164
H 1.237648 -3.028990 2.578162
H 1.417085 -0.627794 3.545375
H 3.058475 -3.863825 -0.502157
H -0.507347 -5.617257 4.280014
H -0.537140 0.160971 6.383326
H 3.050844 1.973037 1.637761
H 4.956360 1.688243 0.495903
H 5.809293 0.642606 -0.364953
H 5.146538 2.450484 -1.727499
H 4.463432 1.104697 -2.260529
H 3.609256 2.148938 -1.400381
H 5.612834 -1.380262 -1.526817
H 5.110479 -2.840524 -1.107642
H -4.167005 -5.572583 5.540161
H 4.714213 -2.483137 -3.419599
H -4.124229 -3.992261 5.291763
H 3.316710 -2.670207 -2.663546
H 3.811666 -1.205757 -3.077802
H 3.232172 -6.142169 -0.351022
H 2.482584 -7.425134 0.242122
H -4.115052 -0.504942 7.158615
H 1.878684 -7.122193 -2.000938
H -3.120913 -0.155931 5.953633
H 0.587363 -6.922558 -1.075739
H -4.019943 -1.477985 5.893371
H 1.346186 -5.647970 -1.675683
H 1.116763 -8.107800 1.972373
H 0.523940 -7.578699 3.361129
B -0.917860 5.100176 -3.910905
H -1.180362 -8.608980 2.112310
H -1.520558 -7.053786 2.286858
H -0.928776 -7.594056 0.901038
H -1.863925 -5.568395 6.101836
B -0.507467 5.646029 -2.257315
H -2.656403 -4.578600 7.077061
B 0.751209 5.525969 -3.494656
H -3.329005 -4.976472 4.312706
H -2.803742 -2.375642 7.738710
H -1.891025 -1.061964 7.766105
H 0.157808 2.397434 6.800204
H 0.640667 3.708320 6.023059
H -1.692702 3.785102 6.346505
H -1.379926 3.713904 4.779046
H -1.862785 2.403018 5.559474
H 1.584785 4.439847 4.074115
H 2.780578 3.884221 3.165298
H 1.280745 3.578488 1.366602
H 0.074818 4.108984 2.274709
H 0.386634 -2.022442 0.661785
H 0.263236 -0.911191 1.808284
H 0.898262 -0.140575 -0.879320
H 0.352090 0.817112 0.281983
H -0.264298 -1.543599 -1.935959
H -1.520944 -2.177403 -1.164519
H -2.898150 -0.488190 -2.224669
H -2.305622 -1.581292 -3.242155
H -1.180077 2.002353 -1.829879
H -0.680629 4.266737 -0.126583
H 1.494242 2.562167 -1.126665
C 2.899504 0.052079 1.088509
C 3.951562 -0.063792 0.139577