63
Cu1 H24 C32 N6
Cu 0.000217 -0.185229 0.100429
N -7.670094 0.541912 -0.051188
C 6.851862 1.392012 -0.191785
H 9.277360 0.423375 -1.592853
H -0.115895 -2.777992 -3.371818
C 9.099448 0.542796 -0.635857
N 1.453215 0.546335 1.245487
H 7.728316 -1.664281 -0.464451
H 7.214643 2.269536 -0.169857
H -4.310889 1.629085 2.229693
H -4.431281 -1.339632 -2.235936
H -2.724389 -2.594880 -3.489139
H 9.630510 -0.102077 -0.122371
H 2.508652 -2.761185 -3.527459
H 9.346920 1.453934 -0.369854
H 0.100811 2.189037 3.722353
H 4.330585 -1.717357 -2.233946
N 7.668923 0.324300 -0.371593
C -3.445136 0.113765 -0.012760
H 4.429574 1.134594 2.338654
C -0.090211 -2.179118 -2.635757
H 2.690578 2.058116 3.808127
C 3.462157 -0.213537 0.026676
C -4.920875 0.263263 -0.048442
H -2.507683 2.331458 3.746313
C -5.531664 1.525587 -0.076340
C -6.892362 1.636162 -0.082186
C -7.117093 -0.695644 -0.042146
C -5.758001 -0.853102 -0.025400
C -9.140750 0.664871 -0.066969
C 0.081548 1.676854 2.921759
C 4.935756 -0.067578 -0.069622
H -4.995786 2.309343 -0.090909
C -3.383335 1.464550 2.117583
C 5.808999 -1.137944 -0.215835
H -7.293936 2.496878 -0.107542
C -2.760774 0.749793 1.022512
C 7.148294 -0.920332 -0.364649
H -7.679190 -1.461707 -0.044883
C -2.822308 -0.669106 -0.982322
H -5.383715 -1.725318 0.002127
C 2.816588 0.439298 1.096593
C -3.498376 -1.358209 -2.054728
C 5.513637 1.208016 -0.046749
H -9.482396 0.392414 -0.944055
C 3.491319 1.080633 2.204247
C -2.569752 -2.028736 -2.742714
H -9.391433 1.596355 0.105693
C 2.784751 -0.928293 -0.963391
C -1.292794 -1.737702 -2.147285
C 2.547445 1.580432 2.999278
N -1.455457 -0.906178 -1.055414
H -9.525202 0.088997 0.626873
C 1.163471 -1.829701 -2.150875
C 1.287074 1.270822 2.420279
H 5.472972 -2.026082 -0.211880
C -1.161700 1.413243 2.376488
C 2.406452 -2.210079 -2.758448
N -1.396598 0.729447 1.199566
C -2.401471 1.850235 2.934351
C 3.399553 -1.651012 -2.052868
H 4.953948 1.966118 0.073700
N 1.400243 -1.031792 -1.043183