159
Ni3 H54 C90 N12
C 0.549078 -1.854075 -3.806676
C -5.058798 1.654268 1.803749
C 0.244518 -3.158959 -4.308865
C -5.621188 4.015115 0.460692
C -6.277311 2.290524 1.984747
C -0.406714 -3.115426 2.992770
C -6.566657 3.452530 1.298268
N -0.593363 2.188947 -2.844316
C 2.860313 -1.761427 2.645216
N -2.341800 0.524633 -2.788128
C 1.794624 -2.776089 2.680933
C -3.317153 -0.424171 -2.903038
N 1.176809 0.339337 -3.352676
C -0.598796 -2.581863 -0.318222
C 2.822820 -0.083718 -0.461685
N 0.575975 1.345069 3.276217
N -0.424238 1.702266 0.288686
C 2.804074 -1.506924 -0.686428
N 1.661361 0.593840 -0.235528
C 1.612186 -2.280478 -0.637573
H -6.804382 -3.242677 -5.143018
H -6.917132 1.924398 2.584531
C -0.059499 -3.843214 -0.715162
H -7.415676 3.866655 1.402020
C 1.291732 -3.666848 -0.921652
C -3.863378 -0.903038 0.352150
C -1.871103 -1.906538 -0.001078
C 4.095534 -2.196760 -0.935048
C -3.274091 -2.127553 0.072807
H 6.804382 3.242677 5.143018
C 4.393438 -3.387788 -0.280551
C 5.058798 -1.654268 -1.803749
C 5.621188 -4.015115 -0.460692
C 6.277311 -2.290524 -1.984747
C 6.566657 -3.452530 -1.298268
N 0.593363 -2.188947 2.844316
N 2.341800 -0.524633 2.788128
N -1.176809 -0.339337 3.352676
N -0.575975 -1.345069 -3.276217
N 0.424238 -1.702266 -0.288686
N -1.661361 -0.593840 0.235528
H 6.917132 -1.924398 -2.584531
H 7.415676 -3.866655 -1.402020
Ni -0.560896 0.406758 -2.917218
Ni 0.000000 0.000000 0.000000
H 6.645446 5.352371 4.191969
H 4.023673 1.159773 -4.417799
H 4.902578 5.850214 2.724724
H 5.126719 6.641628 -3.820917
H 3.287404 4.235015 2.256278
H 0.198331 5.247444 -2.874838
H -2.254996 4.855644 -2.588679
H 5.725788 4.709417 -2.651953
H 1.564913 4.185900 4.263288
H 3.106732 6.713067 -4.984846
H 1.585289 4.948292 -4.784660
H 5.172906 1.618548 4.708123
H 4.245098 2.923433 -2.493984
H -3.491168 1.261351 4.770339
H 5.424216 0.121670 2.783426
H -4.908012 2.335174 -2.536208
Ni 0.560896 -0.406758 2.917218
H -6.645446 -5.352371 -4.191969
H -0.849020 3.755031 4.735963
H 0.543372 4.654721 0.817301
H -4.023673 -1.159773 4.417799
H -4.902578 -5.850214 -2.724724
H -1.905879 4.335476 1.201365
H 4.793904 0.743416 -0.452952
H 3.723460 2.955804 0.047471
H -5.126719 -6.641628 3.820917
H -3.287404 -4.235015 -2.256278
H -3.749270 3.778472 -0.297200
H -0.198331 -5.247444 2.874838
H -4.874051 0.846110 2.269988
H 2.254996 -4.855644 2.588679
H -5.810010 4.829970 0.008290
H -5.725788 -4.709417 2.651953
H -1.564913 -4.185900 -4.263288
C 5.990682 4.693789 3.991932
C 3.214184 0.724440 -4.175828
H -3.106732 -6.713067 4.984846
H -1.585289 -4.948292 4.784660
H -5.172906 -1.618548 -4.708123
C 4.955557 4.991825 3.128769
C 4.531727 5.901561 -3.788245
H -4.245098 -2.923433 2.493984
H 3.491168 -1.261351 -4.770339
C 3.995146 4.030743 2.856513
C -0.235009 4.402451 -2.853234
H -5.424216 -0.121670 -2.783426
C -1.586648 4.188132 -2.684096
C 4.875410 4.762996 -3.073448
H 4.908012 -2.335174 2.536208
H 0.849020 -3.755031 -4.735963
H -0.543372 -4.654721 -0.817301
C 6.078980 3.445833 4.564922
H 1.905879 -4.335476 -1.201365
C 1.087968 3.390021 4.057742
C 3.322723 5.957373 -4.449916
C 2.419366 4.904759 -4.332818
H -4.793904 -0.743416 0.452952
H -3.723460 -2.955804 -0.047471
C 5.110418 2.476937 4.304101
H 3.749270 -3.778472 0.297200
C -1.622239 0.838296 3.847355
H 4.874051 -0.846110 -2.269988
C 3.992429 3.705917 -2.968913
H 5.810010 -4.829970 -0.008290
C 4.049076 2.772740 3.446348
C -2.925110 0.613932 4.367512
C 2.726507 3.781821 -3.557391
C -5.990682 -4.693789 -3.991932
C 2.966950 1.783752 3.212669
C -4.559982 0.272363 -2.772782
C -3.214184 -0.724440 4.175828
C -4.955557 -4.991825 -3.128769
C -4.276342 1.631943 -2.628455
C -4.531727 -5.901561 3.788245
C -3.995146 -4.030743 -2.856513
C 1.631612 2.212388 3.429229
C 2.083834 1.343953 -3.549164
C 1.724393 2.716928 -3.332261
C 0.235009 -4.402451 2.853234
C 1.586648 -4.188132 2.684096
C -0.549078 1.854075 3.806676
C -4.875410 -4.762996 3.073448
C -6.078980 -3.445833 -4.564922
C -0.244518 3.158959 4.308865
C 0.406714 3.115426 -2.992770
C -1.087968 -3.390021 -4.057742
C -2.860313 1.761427 -2.645216
C -1.794624 2.776089 -2.680933
C -3.322723 -5.957373 4.449916
C -2.419366 -4.904759 4.332818
C -5.110418 -2.476937 -4.304101
C 3.317153 0.424171 2.903038
C 1.622239 -0.838296 -3.847355
C 0.598796 2.581863 0.318222
C -2.822820 0.083718 0.461685
C -3.992429 -3.705917 2.968913
C -4.049076 -2.772740 -3.446348
C -2.804074 1.506924 0.686428
C 2.925110 -0.613932 -4.367512
C -1.612186 2.280478 0.637573
C 0.059499 3.843214 0.715162
C -2.726507 -3.781821 3.557391
C -2.966950 -1.783752 -3.212669
C -1.291732 3.666848 0.921652
C 3.863378 0.903038 -0.352150
C 1.871103 1.906538 0.001078
C 4.559982 -0.272363 2.772782
C 4.276342 -1.631943 2.628455
C -1.631612 -2.212388 -3.429229
C -4.095534 2.196760 0.935048
C 3.274091 2.127553 -0.072807
C -2.083834 -1.343953 3.549164
C -4.393438 3.387788 0.280551
C -1.724393 -2.716928 3.332261