89
Zn1 H36 C48 N4
H -5.079945 -7.620653 3.094139
Zn 0.000000 0.000000 0.000000
H -4.864967 -4.927585 3.582080
H 2.601324 4.344226 0.769985
H -2.601324 -4.344225 -0.769985
H 2.160572 3.509402 3.035457
H -1.964245 -7.203704 2.090402
H -2.160572 -3.509402 -3.035457
H -0.917826 -5.319573 1.265681
H -0.441734 -0.638829 5.081414
H 0.441734 0.638830 -5.081414
H -3.672285 -8.296463 3.233252
H -1.547052 -2.615410 4.151003
H 1.547052 2.615411 -4.151003
H -4.264209 -7.466262 4.423535
H 3.867630 3.059171 -2.708588
H -3.867630 -3.059170 2.708588
H 4.864967 4.927585 -3.582080
H -0.779416 2.653315 4.799911
H 0.779416 -2.653315 -4.799911
H 1.964245 7.203704 -2.090402
H -0.325902 3.508478 6.890351
H 0.325902 -3.508477 -6.890351
H 0.917826 5.319573 -1.265681
H 3.207973 1.709401 6.883271
H -3.207973 -1.709400 -6.883271
H 3.672285 8.296463 -3.233252
H 2.786853 0.849616 4.779237
H -2.786853 -0.849615 -4.779237
H 4.264209 7.466262 -4.423535
H 1.015007 3.734980 8.804766
H -1.015007 -3.734980 -8.804766
H 2.552243 3.757168 8.497142
H -2.552243 -3.757168 -8.497142
H 1.894549 2.474887 9.114684
H -1.894549 -2.474886 -9.114684
C -1.101391 -1.812020 2.233045
C 1.101391 1.812020 -2.233045
C 1.612821 2.754086 -1.335286
C -1.612821 -2.754085 1.335286
C 1.545089 2.639448 0.070890
C -1.545089 -2.639447 -0.070890
C 2.136031 3.570419 0.991554
C -2.136031 -3.570419 -0.991554
C 1.891605 3.111867 2.237257
C -1.891605 -3.111867 -2.237257
C 1.140656 1.897999 2.103926
C -1.140656 -1.897998 -2.103926
C 0.657693 1.132513 3.182299
C -0.657693 -1.132512 -3.182299
C -4.075735 -5.016337 3.098689
C -0.071659 -0.042527 3.079072
C 0.071659 0.042527 -3.079072
C -3.538783 -6.265336 2.915974
C -0.542842 -0.837597 4.178634
C 0.542842 0.837597 -4.178634
C -2.350027 -6.367956 2.221572
C -1.158326 -1.922960 3.666862
C 1.158326 1.922960 -3.666862
C -1.724727 -5.232670 1.718337
C 2.282294 3.983671 -1.877085
C -2.282294 -3.983670 1.877085
C -4.200403 -7.530052 3.467004
C 3.472032 3.891221 -2.582136
C -3.472032 -3.891220 2.582136
H 5.079945 7.620654 -3.094139
C 0.947275 1.655780 4.554195
C -0.947275 -1.655779 -4.554195
C 4.075735 5.016337 -3.098689
C 0.031412 2.454548 5.211083
C -0.031412 -2.454547 -5.211083
C 3.538783 6.265337 -2.915974
C 0.302343 2.964872 6.472670
C -0.302343 -2.964871 -6.472670
C 2.350027 6.367956 -2.221572
C 1.491099 2.677352 7.116920
C 1.724727 5.232670 -1.718337
C -1.491099 -2.677352 -7.116920
C 2.398127 1.900772 6.469843
C -2.398127 -1.900772 -6.469843
C 4.200403 7.530053 -3.467004
C 2.147811 1.381203 5.198652
C -2.147811 -1.381203 -5.198652
C 1.763011 3.209864 8.512635
C -1.763011 -3.209864 -8.512635
N 0.937458 1.628045 0.766421
N -0.937458 -1.628044 -0.766421
N -0.443698 -0.649923 1.888269
N 0.443698 0.649924 -1.888269