150
Zn2 H68 C66 N8 O6
C -3.072584 4.166910 -2.901642
C -4.235980 4.376367 -2.144837
H -4.384935 -2.374238 0.422253
C 4.051904 0.452849 -0.324181
C 3.928179 1.752887 -1.060027
H -4.265186 -1.527048 3.018675
H -2.113024 -1.725974 1.675264
C 2.540985 2.134356 -0.868546
H -2.137358 -3.855649 1.719565
C 1.939323 3.414502 -0.854787
H -2.375257 -3.950432 0.145064
C 0.481588 3.467159 -0.637693
H -0.033666 -3.494073 1.519826
C -0.086391 2.320411 0.152095
H -0.263846 -4.309668 0.167357
C 2.050119 1.214617 0.222804
C -0.319054 -0.602628 -1.928530
C 0.797417 1.377268 0.828038
C 0.819877 -0.899847 -2.780131
N -0.917693 0.523058 -2.370688
C 1.635829 -2.143718 -2.752520
N -2.343449 3.010800 -2.881985
C 3.825708 -3.007290 -2.789835
N -4.364290 2.240840 -0.983864
N 2.954948 0.249242 0.463399
C -0.893795 -0.067869 3.732657
C 0.197005 -0.973566 3.467625
C -1.849540 -0.176693 4.888335
C 0.435453 -2.160100 4.137817
O -1.192778 3.269403 2.774895
O -1.326671 2.178822 0.185036
C 1.381357 -3.140687 3.862671
C 1.521460 -4.418492 4.523738
O -2.954293 1.860541 2.810197
C 2.556130 -5.060906 3.901315
C 3.086831 -6.442855 4.178267
C 3.072584 -4.166910 2.901642
C 4.235980 -4.376367 2.144837
C -4.051904 -0.452849 0.324181
C -3.928179 -1.752887 1.060027
C -2.540985 -2.134356 0.868546
H -4.758301 2.710071 2.833670
C -1.939323 -3.414502 0.854787
C -0.481588 -3.467159 0.637693
C 0.086391 -2.320411 -0.152095
C -2.050119 -1.214617 -0.222804
C -0.797417 -1.377268 -0.828038
N 0.917693 -0.523058 2.370688
N 2.343449 -3.010800 2.881985
N 4.364290 -2.240840 0.983864
N -2.954948 -0.249242 -0.463399
O 1.192778 -3.269403 -2.774895
O 2.954293 -1.860541 -2.810197
O 1.326671 -2.178822 -0.185036
H -4.636184 5.234088 -2.222696
H -1.651922 -0.988778 5.400058
H -6.816542 5.389718 -1.582715
H -7.952678 4.670075 -0.711550
H -7.288681 6.672204 0.334801
H -6.911483 5.430673 1.271188
H 0.608362 -5.884692 5.628597
H -5.777170 6.149146 0.400123
H -0.174122 -4.488701 5.676502
H -7.413068 1.432266 1.437060
H 0.849180 -4.902935 7.752614
H -7.498971 2.996758 1.762743
H 1.498966 -3.600556 7.088751
H -8.351619 2.382429 0.555473
H 2.280538 -4.996547 7.041761
H -5.840765 0.098293 0.971719
C -4.862821 3.490562 -1.306063
C -6.134760 3.697679 -0.619691
C -6.998128 4.932189 -0.723973
C -6.719846 5.878841 0.420634
C -6.368946 2.582524 0.112846
C -7.505939 2.326261 1.047765
C -5.260808 1.673317 -0.134965
C 0.724216 -4.904105 5.697042
H -5.603124 -1.638212 2.146680
C -5.114334 0.402532 0.438898
H -4.732320 -2.947612 2.447510
C 1.397689 -4.571782 7.010511
C -4.693968 -1.984577 2.266040
H 1.651922 0.988778 -5.400058
H -0.608362 5.884692 -5.628597
H 5.603124 1.638212 -2.146680
H 0.174122 4.488701 -5.676502
H 4.732320 2.947612 -2.447510
H -0.849180 4.902935 -7.752614
H -1.498966 3.600556 -7.088751
H -2.280538 4.996547 -7.041761
H 4.758301 -2.710071 -2.833670
H 4.636184 -5.234088 2.222696
H 6.816542 -5.389718 1.582715
H 7.952678 -4.670075 0.711550
H 7.288681 -6.672204 -0.334801
H 6.911483 -5.430673 -1.271188
H 5.777170 -6.149146 -0.400123
H 7.413068 -1.432266 -1.437060
H 7.498971 -2.996758 -1.762743
H 8.351619 -2.382429 -0.555473
H 5.840765 -0.098293 -0.971719
C 4.693968 1.984577 -2.266040
C -0.724216 4.904105 -5.697042
C -1.397689 4.571782 -7.010511
C 4.862821 -3.490562 1.306063
C 6.134760 -3.697679 0.619691
C 6.998128 -4.932189 0.723973
C 6.719846 -5.878841 -0.420634
C 6.368946 -2.582524 -0.112846
C 7.505939 -2.326261 -1.047765
C 5.260808 -1.673317 0.134965
C 5.114334 -0.402532 -0.438898
Zn -2.544963 1.492762 -1.519072
H -3.682520 3.511625 1.961721
H -3.627918 3.580664 3.558915
H 2.768009 0.219988 -4.549501
H -1.752478 0.607309 5.467351
H 0.123394 2.327431 -4.888274
H -3.834246 6.633589 -3.573895
H -2.375651 7.101650 -4.035950
H -3.397972 6.493171 -5.106632
H 4.384935 2.374238 -0.422253
H 4.265186 1.527048 -3.018675
H 2.113024 1.725974 -1.675264
Zn 2.544963 -1.492762 1.519072
H 2.137358 3.855649 -1.719565
H 2.375257 3.950432 -0.145064
H 0.033666 3.494073 -1.519826
H 3.682520 -3.511625 -1.961721
H 0.263846 4.309668 -0.167357
H 3.627918 -3.580664 -3.558915
C 0.319054 0.602628 1.928530
C -0.819877 0.899847 2.780131
H -2.768009 -0.219988 4.549501
C -1.635829 2.143718 2.752520
H 1.752478 -0.607309 -5.467351
H -0.123394 -2.327431 4.888274
C -3.825708 3.007290 2.789835
C 0.893795 0.067869 -3.732657
C 1.849540 0.176693 -4.888335
C -0.197005 0.973566 -3.467625
C -0.435453 2.160100 -4.137817
C -1.381357 3.140687 -3.862671
H 3.834246 -6.633589 3.573895
C -1.521460 4.418492 -4.523738
H 2.375651 -7.101650 4.035950
H 3.397972 -6.493171 5.106632
C -2.556130 5.060906 -3.901315
C -3.086831 6.442855 -4.178267