77
Zn1 H24 C44 I4 N4
N -0.995729 -1.578142 -0.817647
H -1.630203 -2.656077 4.114088
H -0.446257 -0.714317 5.096866
C 0.702272 1.055786 3.215144
C 1.180910 1.852240 2.151084
C 1.873063 3.113831 2.305274
C 2.089614 3.588196 1.053922
C 1.568475 2.612702 0.124736
H -4.235896 -3.308561 1.619199
C 1.019003 1.545841 4.607879
H -1.661572 -6.931827 3.014193
C 0.005060 1.986059 5.446685
H -0.626378 -5.002064 2.147803
C 0.283338 2.448427 6.731877
C -1.140433 -1.808864 2.188475
C 1.600857 2.453042 7.174746
C -1.207220 -1.951912 3.634523
C 2.628967 2.015592 6.364759
C -0.556556 -0.896126 4.172145
C 2.322356 1.567990 5.073243
C -0.059703 -0.096903 3.078869
C -1.644369 -2.732677 1.275370
I 1.984374 3.048583 9.154085
N 0.995729 1.578142 0.817647
C -2.323368 -3.944432 1.825007
C -3.700590 -4.030261 1.928607
C -4.321909 -5.153418 2.480899
C -3.558921 -6.206435 2.877703
C -2.183723 -6.183363 2.752217
C -1.572523 -5.032519 2.228014
I -4.457101 -7.959926 3.605323
N -0.448280 -0.661712 1.887416
H -5.266030 -5.181104 2.575197
H 5.266030 5.181104 -2.575197
H 1.630203 2.656077 -4.114088
H 0.446257 0.714317 -5.096866
H 4.235896 3.308561 -1.619199
H 1.661572 6.931827 -3.014193
H 0.626378 5.002064 -2.147803
C 1.140433 1.808864 -2.188475
C 1.207220 1.951912 -3.634523
C 0.556556 0.896126 -4.172145
H -2.126043 -3.528208 -3.121903
C 0.059703 0.096903 -3.078869
H -2.507537 -4.410491 -0.827520
H 0.893525 -1.973139 -5.140568
H 0.416911 -2.755750 -7.297193
H -3.526540 -2.018360 -6.677174
H -3.023616 -1.273588 -4.503681
C 1.644369 2.732677 -1.275370
C 2.323368 3.944432 -1.825007
C -0.702272 -1.055786 -3.215144
C 3.700590 4.030261 -1.928607
C -1.180910 -1.852240 -2.151084
C 4.321909 5.153418 -2.480899
C -1.873063 -3.113831 -2.305274
C 3.558921 6.206435 -2.877703
C -2.089614 -3.588196 -1.053922
C 2.183723 6.183363 -2.752217
C -1.568475 -2.612702 -0.124736
C 1.572523 5.032519 -2.228014
C -1.019003 -1.545841 -4.607879
I 4.457101 7.959926 -3.605323
C -0.005060 -1.986059 -5.446685
N 0.448280 0.661712 -1.887416
C -0.283338 -2.448427 -6.731877
Zn 0.000000 0.000000 0.000000
C -1.600857 -2.453042 -7.174746
C -2.628967 -2.015592 -6.364759
C -2.322356 -1.567990 -5.073243
H 2.126043 3.528208 3.121903
H 2.507537 4.410491 0.827520
H -0.893525 1.973139 5.140568
H -0.416911 2.755750 7.297193
H 3.526540 2.018360 6.677174
H 3.023616 1.273588 4.503681
I -1.984374 -3.048583 -9.154085