81
Cu1 H24 C48 N8
H 0.592627 -1.459863 7.554260
H 2.861914 -1.800080 8.022526
N -6.023893 1.945042 -6.535952
N -0.074223 -0.957160 -1.751883
N -1.043566 1.534847 -0.800571
H 2.458701 -7.786314 -3.001339
H 0.195693 -7.215113 -2.758274
C 3.188297 -6.016842 -2.251624
C 2.210535 -6.940094 -2.647299
C 4.583178 -6.375151 -2.347204
N 5.696914 -6.668262 -2.401805
C 0.871658 -6.594415 -2.511686
H -0.195693 7.215113 2.758274
H -2.458701 7.786314 3.001339
C -0.871658 6.594415 2.511686
C -3.188297 6.016842 2.251624
C -2.210535 6.940094 2.647299
C -4.583178 6.375151 2.347204
H -0.592627 1.459863 -7.554260
H -2.861914 1.800080 -8.022526
N -5.696914 6.668262 2.401805
Cu 0.000000 0.000000 0.000000
H -0.359461 3.380555 3.841324
H 0.919238 1.483758 4.824638
H 2.393681 -3.315698 3.134158
H 2.316080 -4.496787 0.941512
H 3.728626 -1.237982 4.075724
H 0.107832 0.980827 -5.378883
H 3.512990 -4.138364 -1.501401
H 0.403547 5.118053 1.925025
C 0.413481 -2.217671 -2.034839
C -0.117814 2.573136 3.402551
C 0.570561 1.533937 3.942548
C 0.669122 0.522046 2.919650
C 1.285472 -0.719463 3.117614
C 1.448211 -1.676737 2.113103
H 0.359461 -3.380555 -3.841324
C 2.041103 -2.976390 2.319743
H -0.919238 -1.483758 -4.824638
C 1.996242 -3.620642 1.123109
H -2.393681 3.315698 -3.134158
C 1.371771 -2.726063 0.181628
H -2.316080 4.496787 -0.941512
C 1.088469 -3.053992 -1.146712
H -3.728626 1.237982 -4.075724
H -0.107832 -0.980827 5.378883
C 3.501118 -1.554760 6.084986
C 3.088981 -1.273597 4.777642
C 1.744361 -1.045230 4.502167
C 0.814800 -1.123514 5.555345
H -0.403547 -5.118053 -1.925025
C 1.233281 -1.408773 6.855020
H -3.512990 4.138364 1.501401
C 2.575914 -1.618024 7.135424
C 4.903390 -1.773454 6.340864
C 2.837227 -4.754851 -1.757392
C 1.492876 -4.405417 -1.642230
C -0.515411 5.341869 2.014025
C -0.413481 2.217671 2.034839
C 0.117814 -2.573136 -3.402551
C -0.570561 -1.533937 -3.942548
C -0.669122 -0.522046 -2.919650
C -1.285472 0.719463 -3.117614
C -1.448211 1.676737 -2.113103
C -2.041103 2.976390 -2.319743
C -1.996242 3.620642 -1.123109
C -1.371771 2.726063 -0.181628
N 6.023893 -1.945042 6.535952
C -1.088469 3.053992 1.146712
N 0.074223 0.957160 1.751883
C -3.501118 1.554760 -6.084986
N 1.043566 -1.534847 0.800571
C -3.088981 1.273597 -4.777642
C -1.744361 1.045230 -4.502167
C -0.814800 1.123514 -5.555345
C -1.233281 1.408773 -6.855020
C -2.575914 1.618024 -7.135424
C -4.903390 1.773454 -6.340864
C -2.837227 4.754851 1.757392
C -1.492876 4.405417 1.642230
C 0.515411 -5.341869 -2.014025