157
Nb2 H56 C88 N8 O3
C 2.566093 -2.090134 1.072111
C 2.755652 -1.832524 -1.088691
C 2.423923 -1.775482 -2.449318
H -3.494679 2.925897 -3.227893
C 1.152084 -1.878525 -2.961320
H -1.431301 3.038142 -4.495281
H 2.193378 3.731848 -7.973168
H 2.423923 1.621288 -7.057877
C -2.911912 -2.597993 -1.584382
H 1.796329 1.221992 -4.902837
C -4.365626 -3.045130 0.006247
C -3.088663 -2.857443 0.576973
C -2.783832 -2.949446 1.909381
C -1.488937 -2.912645 2.438467
C -1.111100 -3.245697 3.770373
C 0.210692 -3.096652 3.893295
C 0.719171 -2.638474 2.568967
C 2.012785 -2.375344 2.367444
H -7.215419 4.377713 -1.156030
H -8.236221 2.456679 -1.699601
H -6.932361 0.524606 -2.068877
H -4.824155 0.489645 -1.173381
H 1.409525 -1.771801 -5.032166
H -0.985581 -2.034931 -5.271663
H -4.967605 -3.056170 -1.948890
H 3.643250 3.494479 -3.255168
H 4.970165 3.332553 -1.243846
H 3.891726 1.934100 3.809543
C 1.508147 4.646363 -6.282059
C -4.448879 -4.480384 2.972399
C -5.455592 -4.701193 3.882501
C -5.898751 -3.703875 4.732121
C -5.321107 -2.498629 4.652504
C -4.309271 -2.242859 3.744086
C -3.869955 -3.242017 2.887718
N 1.910320 2.613085 -0.756645
N 1.305780 2.215630 1.921529
H -3.029746 -4.432543 -4.461960
N -1.532485 2.132827 1.314794
H 5.601602 1.069267 0.012724
N -0.895924 2.506361 -1.416842
H 7.821238 1.050866 0.549586
H -5.529879 -0.768963 -5.605475
H 8.722925 2.517402 2.122778
N 1.809137 -2.060692 -0.056789
H -4.615383 -4.611029 -6.083715
N -0.009607 -2.064373 -2.241466
H -4.014686 -0.623598 -3.964094
N -2.162641 -2.581432 -0.426563
H 5.031643 3.890094 2.829142
N -0.368233 -2.586952 1.708067
H 7.226944 3.849612 3.340820
O 0.329806 -0.088137 1.275322
O 0.842129 0.228355 -1.120172
O -1.497903 -0.047656 -0.386875
H 4.647402 -1.725800 1.414325
H 4.826714 -1.589634 -1.033583
H 4.246510 -3.847400 2.831054
H 5.677169 -3.817959 4.597490
C -2.635258 2.833894 -2.887280
H 5.401796 -2.351423 6.353108
C -1.495341 2.898296 -3.576629
H 3.562559 -0.978731 6.370176
H 3.618915 -3.350581 -4.156431
C 1.282726 3.143026 -4.416783
H 5.289085 -2.938406 -5.678474
C 1.178980 4.399793 -4.974848
H 6.285552 -0.908809 -5.800694
H 5.501699 0.835578 -4.503620
C 1.971799 3.582802 -7.082529
H 3.850741 0.428922 -2.934676
C 2.094756 2.318674 -6.537528
C 1.739973 2.083145 -5.246050
C 3.333295 3.247910 -2.414418
C 4.060793 3.150386 -1.312386
C 3.201372 2.717969 -0.237232
C 3.602264 2.506361 1.063494
C -5.360812 3.568082 -0.796554
C -6.735117 3.582802 -1.171113
C 3.036148 2.009542 3.452276
C -7.320445 2.467720 -1.536448
C -6.566050 1.288235 -1.681558
C -5.273717 1.301115 -1.235949
C 0.806266 -1.871165 -4.332063
C -0.509121 -2.029411 -4.472990
C -1.054744 -2.187657 -3.129061
C -2.407275 -2.406626 -2.877430
C -4.286216 -2.938406 -1.327111
C 5.925646 1.636008 0.675374
C 7.256402 1.641528 0.993937
C 7.808430 2.493481 1.956025
C 6.910585 3.304952 2.655101
C 5.591355 3.317832 2.356781
C 5.047013 2.513722 1.374549
C -3.548473 -3.690994 -4.676699
C -4.484741 -3.790358 -5.664164
C -5.237855 -2.712077 -6.056493
C 3.957048 -1.815963 0.797277
C -5.032926 -1.521552 -5.376320
C 4.044142 -1.714759 -0.547450
C -4.127397 -1.440589 -4.396034
C -3.356352 -2.505989 -3.994154
C 3.009251 -2.393745 3.513273
Nb 0.251933 1.400479 0.134809
C 4.101779 -3.256738 3.536342
Nb -0.331345 -1.342697 -0.161113
C 4.956076 -3.232817 4.590468
C 4.792133 -2.367984 5.651061
C 3.712414 -1.538113 5.643171
C 2.836343 -1.512352 4.578598
H 1.796329 1.759293 5.035327
C 3.530539 -1.495791 -3.410682
H -3.339701 1.661769 3.870073
C 3.990348 -2.500469 -4.216437
H -4.661492 2.050024 1.891149
C 5.002185 -2.253900 -5.119005
C 5.582390 -1.046814 -5.208749
C 5.134108 -0.014535 -4.420778
C 4.127395 -0.255584 -3.500438
H -0.929225 -0.489273 4.790329
H -1.523519 -0.934570 6.949732
H -1.782242 0.747254 8.490341
H -1.672092 2.957178 7.733101
H -1.143120 3.422716 5.570144
H -4.967605 4.351952 -0.489245
H -5.145637 -3.216256 0.483716
H -1.690024 -3.521708 4.444469
H 0.716610 -3.247538 4.657406
H 2.131900 -0.905128 4.571564
H -4.160698 -5.168571 2.416641
H -5.847518 -5.542105 3.926996
H -6.580139 -3.865801 5.341826
H -5.606727 -1.817803 5.218610
H -3.922468 -1.398267 3.708145
C 2.007662 2.911177 -2.089228
C 2.692893 2.291073 2.064092
C 1.870615 1.880738 4.117117
C 0.785773 1.956180 3.231464
C -0.564196 1.812655 3.512456
C -1.604210 1.924899 2.648484
H 0.874149 5.102700 -4.446867
C -3.010534 1.834736 3.017721
H 1.427457 5.501995 -6.635830
C -3.732908 2.037143 1.940775
C -2.796640 2.239551 0.838226
C -3.179601 2.416198 -0.490975
C -2.280475 2.598365 -1.534432
C -0.391287 2.719809 -2.699652
C 0.926662 2.889096 -2.985685
C -1.059867 0.213634 5.384338
C -1.410808 -0.049496 6.684027
C -1.599087 0.938622 7.599505
C -1.506869 2.257952 7.142780
C -1.181544 2.537643 5.856610
C -0.902328 1.501683 4.957492
C -4.607699 2.432759 -0.873709
H -5.859046 -2.776480 -6.745144