78
Mn1 H28 C44 N4 Cl1
H 2.668115 -2.539985 -3.572051
H 3.649896 -3.190272 1.579462
H 3.723802 -6.593364 -0.759504
H 2.251062 -4.863095 -0.410128
H 0.003361 -2.697387 4.706479
C 2.950608 -2.580198 1.643631
Mn 0.050140 0.041516 -0.033100
H 1.104778 -1.177370 -4.865922
C 3.449659 -3.384324 -1.087161
H 2.690517 -2.301011 3.645659
C 3.973642 -5.724783 -0.977388
C 3.091208 -4.688460 -0.767729
H -2.401640 2.785244 3.486001
H -2.882978 3.907736 -1.638727
H -2.268812 2.732394 -3.695544
H -1.349751 5.127885 1.675495
H -2.700429 6.888026 2.328472
H -4.989419 6.720284 2.143004
H -5.931478 4.794700 1.304701
H -4.589670 3.040304 0.625564
H -0.240149 2.466994 -5.255653
H -0.977063 2.515249 -7.435628
H -2.064647 0.695364 -8.337699
H -2.442640 -1.183115 -7.041672
H -1.777395 -1.212986 -4.836337
C 0.444220 -0.383124 -3.010288
C 1.195207 -1.180587 -3.940292
C 2.053754 -1.931519 -3.229205
C 1.852000 -1.624873 -1.851371
C 2.490593 -2.267233 -0.791578
C 2.239592 -1.988505 0.550723
C 2.421467 -2.093057 2.780208
C 1.370738 -1.197821 2.414849
C 0.582740 -0.500543 3.326596
C -0.326902 0.483504 2.957958
C -1.143356 1.227313 3.867161
C -1.809533 2.151272 3.151559
C -1.440274 1.979164 1.776878
C -1.941197 2.741355 0.726212
C -1.710825 2.467913 -0.611372
C -2.336406 3.157493 -1.702696
C -1.987190 2.519500 -2.834361
C -1.103139 1.454569 -2.474025
C -0.508817 0.567375 -3.374442
H 0.090429 -3.121337 6.978422
C -2.826288 3.895557 1.091125
C -2.273324 5.054355 1.596757
C -3.083243 6.111358 1.989759
C -4.447125 6.012551 1.879076
C -5.006753 4.864784 1.376598
C -4.201573 3.810078 0.975119
C -0.929256 0.619306 -4.803496
C -0.693151 1.733985 -5.605372
C -1.126909 1.760410 -6.914431
C -1.779746 0.674684 -7.452128
C -2.011414 -0.444361 -6.677153
C -1.601609 -0.464467 -5.360342
N 0.874194 -0.656107 -1.727124
N 1.284891 -1.122452 1.040934
N -0.540450 0.938935 1.668753
N -0.932651 1.439058 -1.104973
Cl -1.835579 -1.496999 -0.112420
H -1.202841 1.096336 4.786190
H 0.910993 -1.539279 8.415105
H 1.696276 0.463283 7.606095
H 6.420259 -4.038173 -2.213793
H 1.553278 0.944679 5.344045
H 5.821738 -6.186647 -1.634597
C 0.733647 -0.815461 4.780207
C 0.323011 -2.043653 5.285260
C 0.386337 -2.304457 6.647791
C 0.880434 -1.364644 7.502586
C 4.698552 -3.152358 -1.645704
C 5.581622 -4.202468 -1.847042
C 1.334649 -0.162877 7.020637
C 5.223780 -5.484659 -1.507314
C 1.255927 0.123204 5.662836
H 4.944963 -2.288373 -1.886422