129
H56 Pt1 C60 N4 O8
N 1.319567 0.815054 -0.772273
N 1.541404 -0.329697 1.892982
H -4.943034 -1.832564 -1.932696
H -5.905045 -0.993897 -3.878536
H -4.949982 0.824236 -4.968077
H -2.855730 1.606278 -4.338406
H -1.894779 -3.138009 4.231356
H -3.431189 -3.364510 2.338399
H -3.639063 -2.277915 -0.007653
H -0.892219 3.762633 -3.185870
H -0.959362 3.600409 -7.201921
H -0.129003 0.280939 -5.048645
O 0.641608 -5.462709 8.425228
O 1.027868 -5.914182 6.272212
H 1.791771 2.980591 -4.323419
H 3.839704 4.027395 -4.489325
H 5.456983 3.810076 -2.877784
H -2.741576 7.360639 -6.250913
H -2.500157 6.958140 -8.550521
H 5.064429 2.489328 -1.001604
H 4.200477 1.115015 0.693556
H 0.802268 -0.827082 -9.046429
H 4.402803 0.299304 3.180221
H -0.709245 -0.614354 -9.431948
H 2.852547 -0.762804 4.778187
H -1.312409 -2.527373 -8.236165
H 0.169823 -2.718675 -7.753600
H -0.535346 -2.838047 -10.500030
H 0.871675 -3.205347 -9.917145
H -0.074447 -5.102551 -8.866611
H -0.276604 -5.173461 -10.419261
H -1.465591 -4.743414 -9.493412
H 0.438670 -0.090952 5.909249
H 0.848099 -2.917629 8.734333
H 0.506505 -3.958311 4.865944
H -1.198491 2.679099 8.426392
H -1.219652 7.755486 -6.148467
H -1.326005 1.826658 9.733121
H -2.094932 8.438051 -8.231999
H -0.288203 6.338322 -8.709389
H -2.652893 4.621196 9.777119
H 0.177466 7.760077 -8.246640
H 1.556253 -10.243726 3.815037
H 0.324359 -7.686402 6.935825
H 2.391427 -11.235435 4.696631
H 1.828389 -7.438475 7.325549
H 2.424236 -7.680281 5.052181
H -2.205094 4.777298 11.270962
H 0.928712 -8.006259 4.710950
H -2.724268 3.393803 10.747998
H 2.570896 -9.633090 6.351352
H -1.152240 7.317787 -10.699035
H 1.062158 -9.949886 6.064043
H 0.401066 7.493785 -10.585628
H -0.550131 8.692100 -10.244531
H 3.067281 -9.946825 4.112380
H 1.115443 2.688282 8.767446
H 0.884672 1.638417 9.912386
H -0.269912 3.658565 10.931094
H -0.393395 4.511006 9.619848
Pt 0.146310 -0.298354 0.455919
C -2.484630 -0.952576 -0.896054
C -3.292681 -0.641902 -2.042067
C -4.525568 -1.162243 -2.422701
C -5.106500 -0.635780 -3.563050
C -4.505518 0.432450 -4.251781
C -3.255248 0.908409 -3.871661
C -2.609468 0.320730 -2.771055
C -1.333098 0.521214 -2.093992
C -0.240536 1.254283 -2.599226
C 1.468573 -0.816369 3.180018
C 0.391008 -1.526481 3.716407
C -0.720021 -1.878477 2.976506
C -1.804634 -2.735509 3.398570
C -2.660013 -2.844169 2.360870
C -2.174829 -2.023866 1.306944
C -2.851156 -1.800426 0.116701
C 0.991007 1.378246 -1.986320
C 2.150279 2.092950 -2.493287
C -0.438168 1.924605 -3.920240
C 2.426960 2.882644 -3.649266
C -0.790624 3.277492 -3.973416
C 3.661447 3.500932 -3.743997
C -0.990606 3.898840 -5.211424
C 4.642807 3.372377 -2.774698
C -0.838462 3.182606 -6.382199
C 4.412685 2.593396 -1.656955
C -0.500681 1.820536 -6.330965
C 3.160423 1.965926 -1.542241
C -0.323122 1.190005 -5.087109
C 2.617991 1.156336 -0.476028
O 0.930627 -0.586807 9.724423
C 3.308778 0.851784 0.666091
C 2.829006 0.196766 1.783892
C 3.526188 0.040664 3.008082
C 2.677405 -0.559259 3.887547
C -0.334758 1.111954 -7.627566
C -1.421123 5.322126 -5.226504
C -0.112308 -0.949515 -8.745690
C -1.858305 7.196885 -6.618492
C -0.383479 -2.409531 -8.487231
C -0.081420 -3.237486 -9.741121
C -0.515517 -4.700562 -9.617636
C 0.468039 -1.950406 5.147887
C 0.516012 -0.987775 6.139123
C 0.678805 -1.336710 7.478179
C 0.756857 -2.681945 7.839359
C 0.695924 -3.661411 6.868800
C 0.550496 -3.298702 5.517453
C 0.721302 -0.335818 8.584465
C 2.254957 -10.312595 4.472004
C -0.788341 2.498510 9.285546
C 0.782813 -5.100001 7.290063
C -0.797717 3.791711 10.128122
C 1.171996 -7.334407 6.617594
C -2.229127 4.183497 10.517082
C 1.612087 -8.082780 5.395703
C 1.865830 -9.556569 5.689692
C -1.839404 7.512150 -8.104870
C -0.498886 7.282588 -8.752036
C -0.443986 7.738652 -10.204942
C 0.533431 1.975108 9.073118
N -1.297879 -0.233281 -0.940772
N -0.984281 -1.451491 1.669609
O -0.193130 1.684329 -8.677037
O -0.331728 -0.231750 -7.488455
O 0.519737 0.917591 8.103554
O -1.637669 5.978674 -4.241640
O -1.504447 5.793494 -6.480531