102
Zn1 H43 C49 S2 N5 O2
Zn 0.015527 -0.502824 -1.330333
H -1.040373 -1.683455 3.130075
H -0.408999 -1.437695 4.594177
H -1.100941 -5.527141 -1.363764
H 1.039123 -5.409176 -2.513904
H -2.966614 -0.552959 3.872220
H 2.709327 -3.398860 -3.123151
H -2.322392 -0.331775 5.300264
H -1.230336 0.813467 2.928306
H -0.677883 1.069057 4.405898
H -3.282301 1.771931 3.631600
H 0.762897 4.529358 -2.106182
H -2.485742 2.253620 4.922539
H -1.499220 4.401563 -1.185816
H -3.006992 2.430568 -0.324120
H -1.916771 3.113780 2.259463
H -4.593686 0.533300 0.610917
H -2.358182 4.062414 3.442599
H -4.529448 -1.924300 0.635430
H 0.140700 2.971240 3.034449
H 1.016181 -2.538700 0.808751
H -0.301629 3.275982 4.553348
H -0.887118 5.502568 3.529719
H 0.611477 5.242062 4.027197
H 1.261205 1.314817 0.749243
H 0.326992 6.097307 1.743835
H -4.173382 -4.263935 -1.913331
H 2.052258 3.924788 2.202189
H -5.554512 -5.989170 -1.280280
H 2.404653 5.433755 2.516132
H -5.311323 -7.006616 0.772836
H 2.996566 2.971240 -4.757328
H 4.506173 -1.531084 -3.568271
H 4.540128 0.892110 -3.366717
C 2.008209 -1.776844 2.340511
C 2.487245 -0.661093 2.882172
H -0.052933 4.588340 1.379575
C 2.247727 0.479233 2.269069
H 4.564906 4.583425 -5.239933
C -1.043126 -3.393944 -1.265112
H 5.478929 5.841716 -3.573148
C -0.631081 -4.749065 -1.565191
H 4.937490 5.423924 -1.367552
C 0.548156 -4.682218 -2.182567
C 0.916152 -3.279912 -2.254547
C 2.108237 -2.780036 -2.778928
C 2.490916 -1.451457 -2.832801
C 2.520282 0.743180 -2.657245
C 2.066941 2.045708 -2.449008
C 0.822547 2.416314 -1.984225
C 0.310474 3.762587 -1.868991
C -2.704153 -3.492248 3.534259
C -0.917402 3.692791 -1.364667
C -1.882816 -2.863103 4.616583
C -1.208311 2.300806 -1.147123
C -1.232171 -1.594981 4.089862
C -2.370112 1.801914 -0.576278
C -2.148030 -0.405503 4.354277
C -2.713330 0.465962 -0.351936
C -1.461595 0.892110 3.868186
C -3.908168 -0.001473 0.271685
C -2.422421 2.047182 3.981993
C -3.881555 -1.346764 0.282762
C -1.862627 3.271067 3.206463
C -0.425517 3.511912 3.611049
C -2.635326 -1.728675 -0.361647
C -0.074958 4.976641 3.394825
C -2.221446 -3.041524 -0.620653
C 1.297913 -1.737522 1.185412
C 0.433445 5.168334 1.979854
C 1.922863 4.843931 1.924084
S -1.755257 -4.179885 2.190252
C 1.473193 0.489064 1.139022
C -3.112527 -4.154817 -0.181432
C -4.085283 -4.647812 -1.064966
C -4.900196 -5.694258 -0.688687
C 3.802301 -0.996310 -3.268506
C -4.774472 -6.288997 0.534089
C 3.819738 0.330794 -3.155123
C -3.814564 -5.817138 1.414405
C -2.981297 -4.765285 1.071981
O -3.910004 -3.576298 3.606576
C 3.053463 3.158509 -2.735929
C 3.399433 3.450472 -4.068560
C 2.424842 5.010065 0.501892
S 3.321429 3.557132 -0.047904
N -0.080464 -2.540666 -1.710044
N 1.750336 -0.380435 -2.456732
N -0.152045 1.553204 -1.551901
N -1.957150 -0.607517 -0.731443
N 1.006086 -0.607517 0.588460
C 4.316210 4.435969 -4.353586
C 4.873251 5.168334 -3.357793
C 4.552058 4.922574 -2.046741
O 2.247727 5.962630 -0.187622
C 3.640787 3.924297 -1.737624
H 2.168805 -2.587852 2.759496
H 2.964446 -0.680754 3.675468
H 2.599204 1.275496 2.605494
H -3.725547 -6.210354 2.253380
H -1.178027 -3.467672 4.864791
H -2.442610 -2.661580 5.382762