109
H47 Ir1 C56 N4 O1
H 4.371230 4.333356 -4.764569
H -0.060548 1.209015 4.963373
H -4.695576 -2.025496 0.416889
H -6.826872 -2.368054 6.361021
H -0.685061 2.846066 -0.508457
H 1.832297 0.618575 -4.762382
H -0.304676 -0.493450 -5.113241
H -5.264452 -1.717365 -7.851557
H -5.473380 -3.165062 -7.287489
H -4.236842 -2.139108 -1.957526
H -5.324632 -0.030393 2.114411
H -2.211146 0.119369 4.609389
H -4.469616 -3.208097 5.310811
H -7.007413 -0.780923 3.469383
H 4.035128 2.517279 1.850160
H 4.450714 2.460473 -0.540821
H -2.127121 -3.371630 -3.976646
H -7.866971 -2.139108 5.211175
H -3.296665 -3.939692 -5.879054
H 2.675959 0.098712 4.631303
H -4.530932 -0.226633 -6.259257
H -7.144806 -3.523114 5.349284
H 3.923851 0.768337 6.445374
H -3.293259 0.372415 -4.411260
H 4.747074 4.131952 7.319947
H -4.225488 -2.844882 -8.179824
H 5.543045 2.784096 7.250282
H 4.242921 2.883937 8.122301
H -2.764125 -2.488552 3.960213
H 2.219496 3.911613 3.553611
H 4.759564 0.203717 -2.849559
H 6.434397 1.038596 -4.175922
H 2.686178 3.527741 -3.434297
H 6.465055 4.183594 -5.800989
H -0.511333 -2.397318 1.531175
H 0.626418 -4.325286 2.044740
H 3.627491 -3.187441 -0.267297
H 2.497689 -1.254308 -0.784459
H 2.477250 -5.771262 1.919762
H 3.839826 -5.020732 1.731997
H 3.173299 -5.754048 0.515665
H -2.615377 3.209282 -1.070388
H -3.016202 1.773634 -0.582429
H -2.242940 1.954381 -1.934633
H 6.831815 2.716961 -6.219220
H 7.501748 3.364208 -4.955833
Ir -0.092148 0.168704 -0.041001
C 1.365615 0.623739 -2.698284
C 1.221409 0.386186 -4.100401
C 0.050729 -0.233518 -4.294265
C -0.559023 -0.421151 -3.002863
C -1.794425 -1.021919 -2.780596
C -2.381468 -1.199224 -1.542850
C -3.677051 -1.777614 -1.311790
C -3.934805 -1.705315 -0.010614
C -2.819764 -1.039133 0.616639
C -2.735738 -0.731003 1.983026
C -7.044884 -2.574622 5.448073
C -1.657032 -0.066542 2.572013
C -1.565058 0.281180 3.960067
C -0.384159 0.880228 4.154773
C 0.290316 0.921541 2.892222
C 1.551834 1.467225 2.669858
C 2.171806 1.584280 1.442582
C -4.820479 -2.497159 -7.512529
C 3.462846 2.172999 1.203644
C -5.139549 -0.679361 2.754252
C 3.694484 2.136850 -0.107941
C 2.561275 1.506817 -0.731689
C -6.152397 -1.130368 3.571676
C 2.443185 1.274428 -2.095133
C -5.935520 -2.087466 4.542310
C -2.574500 -1.440220 -3.998290
C -2.594939 -2.715777 -4.439954
C -3.310291 -3.058336 -5.582023
C 2.833791 1.004168 4.772138
C -4.031320 -2.130501 -6.278078
C 3.580936 1.406976 5.862301
C -4.029050 -0.873879 -5.818152
C 3.821658 2.735897 6.096768
C -3.294394 -0.514106 -4.693751
C 3.289118 3.651682 5.262181
C 2.551056 3.264367 4.133247
C -3.854186 -1.176845 2.869780
C 4.668726 3.174854 7.313234
C -4.649022 -2.567737 4.660183
C -3.618006 -2.137387 3.850261
C 2.317147 1.932003 3.881332
C 3.527569 1.771913 -2.982446
C 4.664184 1.048925 -3.226618
C 5.672490 1.551574 -4.028408
C 5.575974 2.782375 -4.610418
C 4.462069 3.491591 -4.376879
C 3.443543 3.006157 -3.573680
C 0.852378 -1.595146 0.321724
C 0.328922 -2.538473 1.160255
C 1.019294 -3.709025 1.470331
H 3.414021 4.557138 5.437569
C 2.255831 -3.977563 0.959759
C 2.789507 -3.037679 0.108313
C 2.104812 -1.868848 -0.205047
C 3.005248 -5.247956 1.314226
C -2.346268 2.288333 -1.039937
N 0.276690 0.107319 -2.032461
N -1.886399 -0.746495 -0.329405
C 6.695557 3.309123 -5.475066
N -0.515875 0.350036 1.929258
N 1.646079 1.186637 0.230610
O -1.140389 2.180573 -0.363420