35
Fe2 H8 C14 S2 N2 O7
Fe 0.367714 -1.309541 0.388570
O 1.244503 -2.916632 -3.502953
H -2.208152 4.129845 1.000713
C -0.398071 1.955829 -0.204273
Fe 1.175750 -0.508796 -1.850245
C -2.048144 0.450147 -1.169338
O 1.074495 1.515424 -3.956846
H -0.325567 2.643479 0.477378
C -2.515665 1.437195 0.986232
O -3.563962 0.823912 1.074413
H -0.345568 2.394302 -1.066974
H -2.040644 0.962987 -1.992521
N -1.663127 4.216767 4.175844
H -2.958185 0.144954 -1.027498
C -2.158149 2.409755 2.077573
C -1.988142 1.974179 3.376789
C -1.718130 2.900382 4.367197
S 1.035493 0.812129 -0.038706
H -2.053145 1.069225 3.582086
S -0.975596 -1.020477 -1.393964
H -1.565623 2.581668 5.228061
C 1.922033 -1.474692 1.301338
N -1.692629 1.329025 -0.083901
C 0.231957 -3.069228 0.092291
C -0.795588 -1.255456 1.772751
O 2.882076 -1.530709 1.878145
C -1.863136 4.612745 2.937946
C 1.091996 0.743750 -3.140796
C 2.974580 -0.576498 -1.649744
O 0.151954 -4.192454 -0.083924
C -2.095647 3.780225 1.854405
O -1.512370 -1.307609 2.635710
C 1.219502 -1.979806 -2.869322
O 4.105381 -0.647968 -1.525852
H -1.845635 5.528323 2.776778