102
H40 Ir1 C55 N4 Cl1 O1
C -0.341740 -3.325530 0.436316
C -0.596142 -4.503143 -0.239620
C 0.078191 -4.748162 -1.409847
C 0.969154 -3.858043 -1.914433
C 1.216890 -2.696196 -1.227153
H -6.842883 0.039077 3.761196
H -7.866046 -1.396538 5.334430
N -0.445278 0.854076 2.107948
H -7.362797 -2.876668 5.211683
N -1.781945 -0.404035 -0.098922
N 0.400804 0.280016 -1.828522
H -6.879543 -1.980800 6.405184
N 1.751135 1.514385 0.392099
Cl -0.207318 -6.250179 -2.262988
C 5.718365 2.640620 -4.608526
O 1.592384 -1.258541 1.702005
C 5.908334 1.600262 -3.739781
C 6.803741 3.075385 -5.568074
H 0.038197 1.793718 5.104821
H -2.079229 0.643742 4.826786
H -4.626584 -1.572744 0.732716
H -4.130000 -1.871367 -1.655270
H -0.019571 -0.762196 -4.791613
H 2.137849 0.332136 -4.474095
H 4.471906 2.906598 -0.479371
H 3.953103 3.279413 1.871209
H -2.881318 -2.277568 3.970238
H -4.671021 -2.943441 5.224034
H -5.045403 0.730918 2.527814
H -2.644691 0.363667 -4.636529
H -3.887818 -0.396801 -6.407365
H -3.691184 -4.087853 -4.989881
H -2.431393 -3.358916 -3.204795
H -4.976526 -3.752134 -6.910292
H -5.693074 -2.359179 -6.949309
H -4.428839 -2.615142 -7.839283
H 2.682203 3.310944 -3.743692
H 4.363035 3.967544 -5.139248
H 5.077361 0.482374 -2.276667
H 3.695368 1.474692 4.285005
H 4.752970 2.646926 5.964241
H 2.072304 5.531140 5.664504
H 1.005814 4.375600 3.989031
H 3.727585 5.803796 7.259336
H 4.179732 4.449792 7.905443
H 5.105134 5.169454 6.865743
H -0.791665 -3.141905 1.230048
H -1.211595 -5.117267 0.091661
H 1.406859 -4.034064 -2.715175
H 1.831233 -2.082814 -1.558263
C -5.955252 -1.519511 4.653607
C -6.041905 -0.428518 3.819681
C -7.120615 -1.985252 5.474891
Ir 0.017290 0.493893 0.168345
C 0.365921 1.501216 3.029120
C -0.290637 1.442604 4.308735
C -1.449334 0.799916 4.161515
C -1.550428 0.390191 2.782684
C -2.625805 -0.293859 2.218656
H 6.725976 1.157522 -3.736905
C -2.729121 -0.646086 0.861531
C -3.853379 -1.305467 0.288911
H 7.578057 2.520800 -5.449566
C -3.576758 -1.466279 -1.025138
H 6.486016 2.991919 -6.470534
C -2.306969 -0.915217 -1.273296
H 7.035924 3.989801 -5.395281
C -1.649300 -0.873855 -2.512510
C -0.401730 -0.361003 -2.751981
C 0.292599 -0.387898 -4.000655
C 1.477958 0.223815 -3.827274
C 1.545725 0.676757 -2.482465
C 2.602216 1.385476 -1.931628
C 2.672204 1.792420 -0.589800
C 3.725363 2.587201 -0.026928
C 3.442077 2.789375 1.267496
C 2.210059 2.113485 1.554518
C 1.552390 2.079543 2.779568
C -3.753396 -0.696722 3.104972
C -3.675631 -1.795320 3.924895
C -4.754341 -2.193360 4.678402
C -4.962084 -0.018978 3.070085
C -2.415840 -1.401917 -3.705324
C -2.856878 -0.539620 -4.690672
C -3.608975 -0.997942 -5.753420
C -3.951141 -2.314664 -5.866384
C -3.490106 -3.183267 -4.914350
C -2.730232 -2.748131 -3.837909
C -4.845437 -2.806186 -6.995203
C 3.696479 1.814863 -2.852446
C 3.498734 2.865607 -3.725041
C 4.513010 3.250107 -4.567101
C 4.915165 1.186827 -2.860865
C 2.250052 2.820721 3.923641
C 3.364312 2.303602 4.546528
C 3.996429 3.007685 5.563327
C 3.527618 4.224062 5.987365
C 2.414469 4.712988 5.388795
C 1.773465 4.018551 4.371437
C 4.195285 4.980264 7.105066
C 0.874725 -1.184720 0.742490
C 0.555889 -2.435783 -0.045525