217
Zn1 H108 C92 N6 O10
C 0.068612 -2.535821 1.790605
C 3.662816 13.932905 -1.993635
C 0.655029 16.279971 -3.725065
C -0.563723 -3.305088 0.807089
C -0.812086 -4.697263 1.102847
C -1.029506 -5.839562 1.286705
C 4.640053 16.106841 -1.318956
C -1.323669 -7.247801 1.411833
C 5.246438 15.168015 -3.522773
C -1.388921 -7.865356 2.640433
C -1.710616 -9.218265 2.718745
C -1.941577 -9.939341 1.565989
C -1.864916 -9.323571 0.334712
C -1.556025 -7.986725 0.248173
C -2.305817 -11.386847 1.575633
C -2.578207 -13.309120 2.927375
C 2.309740 15.348284 -5.333363
H -6.516160 -14.385379 3.221744
H -7.459942 1.585376 -3.675570
H -6.876139 0.141440 -3.560999
C -2.202513 -15.292078 4.447001
H -7.615439 1.671049 -6.064012
C -1.906530 -15.613350 5.884751
C 2.682154 0.423445 4.192021
C -1.362251 -16.179144 3.534292
C 2.452266 1.301587 5.230417
C 3.347732 1.408677 6.279239
H -6.458223 1.099900 -6.946458
C 4.479081 0.587650 6.290416
H -7.259332 0.152149 -6.014793
C 4.731625 -0.317264 5.255742
C 3.814885 -0.381518 4.227444
C 5.958799 -1.227533 5.246613
C -1.923015 -13.803521 4.180497
C -4.517106 -14.895844 3.217787
C 5.479135 -2.666115 5.387824
C -4.053852 -13.444768 3.067348
C 3.116784 2.497430 7.370920
C 4.187691 2.467088 8.417015
C 3.202339 3.837845 6.646045
C -5.943798 -14.927971 3.776644
C 1.735921 2.304667 7.976034
C -4.467584 -15.615135 1.899748
C -2.632575 -0.443988 -4.049785
C -2.450926 -1.323914 -5.108981
C -3.405964 -1.420296 -6.127693
N 2.966880 16.035447 -3.062630
C -4.510475 -0.572496 -6.082390
C -4.706009 0.318139 -5.049143
C -3.761462 0.366330 -4.041041
C -5.920179 1.273029 -4.980669
O 2.443948 11.144984 -4.601525
O 2.516597 11.912465 -2.519064
O 3.117789 17.284836 -3.217244
C -5.411413 2.699117 -5.056511
C -3.229212 -2.455503 -7.234847
C -3.329128 -3.853034 -6.586172
C -1.856138 -2.287728 -7.901738
C -4.302243 -2.366261 -8.298283
C -3.346881 -0.235161 0.978741
C -4.361826 -0.006702 -0.078947
C -3.649542 2.208286 -0.276731
H 7.631492 -1.586286 6.361126
C -2.647226 1.988750 0.776368
H 6.448781 -1.031200 7.235328
C 2.825334 -1.959318 -0.730904
H 7.279267 -0.056677 6.308031
C 3.819230 -2.112814 0.337668
H 7.572207 -1.534526 4.039897
C 4.423828 0.128946 0.132035
C 3.428726 0.291367 -0.963158
H 6.853442 -0.153059 3.778741
C 1.666665 1.478286 2.182732
N -0.825733 -1.579147 -0.929910
N -0.329081 1.194496 -1.543601
N 0.967830 1.540755 1.019280
N 0.456025 -1.222178 1.641096
C 1.767826 0.341342 3.004498
O -2.635129 -12.016896 0.618252
O -2.213074 -11.915160 2.804849
C 1.148732 -0.891983 2.763783
O 2.316976 -0.615332 -0.793778
O 4.920814 -1.207900 0.165580
O -2.211357 0.623347 0.792784
C 1.143490 -2.000369 3.662576
O -4.790080 1.358701 -0.089339
C 0.482838 -3.007019 3.070392
N -3.641075 -15.568729 4.223886
H 1.504414 8.014373 -0.095482
H 1.949485 10.129409 -0.905504
O -4.041420 -16.736015 4.566207
H 2.029543 8.697967 -4.625236
Zn 0.074830 -0.022944 0.033421
H 1.600945 6.579361 -3.826593
H -1.977222 -4.531273 -1.326136
H 3.370262 13.115448 -3.877226
H -2.639333 -3.033792 -3.123874
H 1.074743 13.517037 -3.985890
H -1.534051 2.013738 -4.377765
H 1.107866 14.077477 -2.500589
H -2.264576 -13.285917 4.919127
H -0.294090 3.828921 -3.312125
H 2.311747 4.425058 1.275327
H 3.103971 14.050704 -1.193257
H 2.875030 2.950779 3.138013
H 4.440785 13.392098 -1.786524
H 1.527914 -2.016433 4.506773
H 0.328452 -3.847679 3.432981
H 0.471862 16.401340 -2.796506
H -1.206608 -7.385234 3.415428
H -1.774427 -9.630563 3.549580
H -2.007963 -9.814402 -0.440356
H -1.506124 -7.567287 -0.577919
H 5.324434 15.612440 -0.865550
H 4.999945 16.935007 -1.643992
H 3.915369 16.283540 -0.724561
H 6.049054 14.884225 -3.098095
H -4.473743 -13.057458 2.280305
H 5.364120 16.022953 -3.934018
H -4.328239 -12.939658 3.859374
H -0.082761 15.855178 -4.164774
H 4.979287 14.534396 -4.188804
H 0.829834 17.136694 -4.141554
H 1.563012 15.096621 -5.862556
H 2.607772 16.222856 -5.594461
H 3.022345 14.716450 -5.440114
H 3.033384 4.537503 7.284861
H -0.993964 -15.420587 6.070722
H -2.078015 -16.539682 6.043852
H -2.479017 -15.088607 6.451434
H -0.448137 -16.127384 3.812124
H -1.680751 -17.076919 3.603998
C -6.657660 1.073127 -3.651822
H -2.251712 -13.803521 2.155594
H -6.264887 -15.832885 3.759405
H -0.966544 -13.683937 4.095731
H -5.952953 -14.604915 4.673106
C -6.897845 1.026721 -6.107432
H 1.679161 1.812051 5.230072
H 5.080985 0.637626 7.004082
H 3.952789 -0.984795 3.527596
H -1.459111 -15.875721 2.627105
H 6.200650 -1.486335 3.252831
H -5.125965 -15.213545 1.316322
H 6.259453 -3.233694 5.412220
H -4.682219 -16.541467 2.028723
H 4.952262 -2.874941 4.626938
H -3.606584 -15.536602 1.510359
H 4.988699 -2.746432 6.199969
H 3.968977 3.129264 9.097407
H 4.198025 1.588946 8.839520
H 5.025455 2.670559 8.015719
H 2.541377 3.871757 5.950668
H 4.072411 3.943151 6.267010
H 1.578450 3.013249 8.628334
H 1.068713 2.352858 7.296185
H 1.704562 1.453298 8.418844
H -1.681640 -1.836164 -5.137393
H -5.127444 -0.599269 -6.771080
H -3.882930 0.960682 -3.320565
H -6.108761 1.346208 -2.924214
H -6.168612 3.305963 -5.059694
H -4.903009 2.807992 -5.853592
H -4.861934 2.874031 -4.280630
H -3.185279 -4.513425 -7.284018
H -4.190366 -3.965479 -6.191842
H -2.649530 -3.944061 -5.916837
H -1.765592 -2.948119 -8.589637
H -1.806812 -1.407802 -8.301422
C 6.920293 -0.934819 6.401300
H -1.160117 -2.389464 -7.262574
C 6.719992 -1.084746 3.941840
H -4.081847 -2.969538 -9.028081
H -5.150323 -2.592936 -7.919994
H -4.313671 -1.463132 -8.638980
H -3.044993 -1.161494 0.942071
H -3.741625 -0.062032 1.844816
H -5.119617 -0.568927 0.133783
H -4.000592 -0.253010 -0.939259
H -3.254861 2.026232 -1.134227
H -3.942572 3.131048 -0.227397
H -3.035423 2.190437 1.635444
H -1.869217 2.538481 0.614965
H 3.213394 -2.180638 -1.587541
H 2.062316 -2.542961 -0.556521
H 4.169482 -3.019513 0.300633
H 3.397735 -1.953963 1.198191
H 5.161565 0.726868 -0.008807
H 4.006329 0.314570 0.986870
H 3.843725 0.111098 -1.815928
H 3.083600 1.205205 -0.937388
C -0.978136 -2.860662 -0.448963
C -1.760275 -3.637068 -1.389345
C -2.109797 -2.807117 -2.388161
C -1.519616 -1.534526 -2.120293
C -1.666440 -0.394012 -2.898651
C -1.077679 0.857161 -2.651084
C 1.012324 4.624960 -1.090634
C -1.110335 1.990535 -3.550300
C 1.228324 5.745840 -1.413053
C -0.434604 2.975767 -2.960355
C 1.519386 7.073762 -1.879891
C 0.038001 2.504569 -1.690509
C 1.619547 8.144666 -1.005103
C 0.731027 3.241708 -0.745375
C 1.887376 9.417258 -1.495349
C 1.184782 2.797283 0.494698
C 2.053813 9.624299 -2.842279
C 2.026393 3.548701 1.393440
C 1.938434 8.555180 -3.712390
C 2.334122 2.731244 2.421076
C 1.677013 7.291512 -3.230715
C 2.338441 10.939727 -3.422189
C 2.853234 13.224323 -3.048166
C 1.603570 14.004299 -3.323909
C 1.891338 15.405399 -3.872728
C 4.122931 15.298308 -2.481838