174
Fe1 H88 C74 N5 Cl1 O5
C 1.664815 5.092633 -1.279636
H -6.862883 -0.842120 3.945713
C 0.919740 6.114298 -1.832524
H -8.206262 -0.006333 4.191390
C 1.159362 7.432835 -1.487844
C 2.128967 7.775173 -0.568255
H -7.709823 -0.300530 2.698871
C 2.873828 6.746821 -0.012675
H -7.917501 1.995542 2.219827
C 3.062768 9.369185 1.154379
C 2.328326 9.236797 -0.162371
C 3.021402 9.950893 -1.199832
C 0.912209 9.866645 -0.007557
C 2.653976 5.424273 -0.365688
Fe 0.877844 0.214715 -1.634289
H -2.625100 -3.603559 -1.549165
H -3.646838 -1.786224 -0.206587
H 3.851896 -2.672827 -4.726742
H 1.937814 -4.162533 -4.203620
H -1.504466 1.342960 3.337350
H -1.035707 0.699739 1.950150
H -3.967668 0.862884 4.003781
H -5.511527 0.862884 5.289589
H -6.917103 1.567620 5.588364
H -5.129259 -3.203718 7.742554
H -6.559328 1.165105 0.975655
H -6.383775 -2.287696 7.368576
H -5.912092 1.246678 -1.234025
H -5.320890 -1.756805 9.237106
H -5.544241 -0.582692 8.194310
H -4.462028 1.883213 -1.469323
H -3.752879 0.682355 9.187564
H -4.671221 0.301236 -1.592187
H -3.573434 -0.470362 10.258926
H -1.908341 0.886955 10.124918
H -1.516897 -0.638857 9.863341
H 0.467316 0.659621 9.070624
H 0.159339 -0.772583 8.412907
H 1.627920 0.519209 7.112414
H 0.461447 1.602388 6.920501
H 4.586574 1.004634 -5.985465
H -0.710000 -4.162533 -4.974669
H -1.341557 -6.351625 -5.459731
H -1.962234 -9.769657 -5.465981
H -2.127314 -8.234484 -5.884575
H -0.673366 -8.828227 -5.575289
H -1.069081 -9.298942 -2.088733
H -1.363595 -10.399506 -3.211242
H -0.054005 -9.484821 -3.312976
H -3.377751 -8.257218 -2.573831
H -3.725723 -7.848017 -4.082530
H -3.613203 -9.392550 -3.677170
H -0.999492 -7.306427 -1.563475
H -0.333618 -5.138731 -1.086518
H -1.854489 -0.723104 4.238943
H -1.123960 -2.020245 1.854346
H -2.660827 -1.726048 2.192670
H -2.100648 -3.876359 2.785523
H -0.942429 -3.325409 3.745900
H -4.410423 -2.200774 3.703401
H -4.282402 -3.785426 3.489368
H -4.622586 -4.063575 5.903449
H -5.916704 -3.464484 5.158097
H 6.670089 0.840151 -6.989304
H 10.841325 0.027098 -5.517620
H 9.704359 0.983238 -4.923595
H 9.876532 -0.502456 -4.355259
H 8.638621 -2.220833 -7.244571
H -8.381594 2.281716 3.724129
H 10.183068 -1.931986 -6.939949
H 9.217898 -2.450842 -5.772803
H 8.493780 0.128730 -8.140192
H 8.886435 1.352321 -7.185108
H 10.024764 0.378797 -7.748503
H 7.858182 -1.691279 -4.098427
H 0.268714 1.137022 4.491286
H 5.780792 -1.560228 -3.116628
H 1.587431 0.257106 4.751470
H 0.629225 -0.666939 2.897000
H 0.315696 -1.687267 4.086396
C -7.419751 -0.105291 3.614751
H -2.548076 3.308730 0.609736
H -0.758522 4.862624 -0.127785
H 3.864061 4.272893 -2.664912
C -1.004373 -2.254265 -1.899555
C -2.258550 -2.739690 -1.399251
C -2.823481 -1.744769 -0.677508
C -1.942763 -0.612112 -0.757584
C -2.207722 0.632876 -0.181273
C -1.452024 1.784256 -0.421431
H -7.179635 3.121514 3.085856
H -5.712928 2.416779 4.962388
C 3.339979 1.199874 -3.214497
C 3.655643 -0.063836 -3.715077
C -5.395317 -2.301069 7.433603
C -3.281951 -0.170816 9.362847
C 2.815711 -1.180446 -3.605939
C -5.018110 -1.403768 8.364539
C 3.083626 -2.445493 -4.216871
C -1.991371 0.140765 9.478326
C 0.038269 0.203616 8.304203
C 2.036950 -3.257209 -3.934196
C 1.102754 -2.497646 -3.151393
C 0.647474 0.640900 7.064597
C -0.101703 -2.995106 -2.659407
H 0.233097 5.909698 -2.458010
C -3.342400 0.751892 0.798667
H 0.643347 8.120186 -1.893448
C -3.091767 0.710437 2.170987
H 3.549486 6.952759 0.622195
C -1.666606 0.596770 2.707104
C -4.147252 0.869571 3.071589
H 3.086865 10.311952 1.419936
C -5.442253 1.035391 2.638439
H 2.597828 8.847654 1.842203
C -6.608013 1.194525 3.627429
H 2.529973 9.861296 -2.041456
H 3.085662 10.897671 -0.955796
C -6.149426 1.539537 4.980312
H 0.999621 10.802726 0.268777
C -5.666138 1.066148 1.285706
H 0.439449 9.821178 -0.865986
C -4.645710 0.957830 0.346133
H 0.406169 9.371860 0.668293
C -4.948657 1.110277 -1.113489
H 3.185179 4.739597 0.020976
H 5.032708 2.394045 -3.743462
O -3.768744 -1.023987 8.525729
O -1.332347 0.516535 8.266405
C 4.963025 -0.232330 -4.414712
C -0.469990 -4.416612 -2.981351
C -0.766037 -4.799068 -4.273144
C -1.147082 -6.109581 -4.561416
C -1.247318 -7.064383 -3.567587
C -1.778999 -8.475191 -3.850896
C -1.621365 -8.861659 -5.327698
H 3.977454 9.034871 1.053321
C -0.996389 -9.507554 -3.043400
C -3.254173 -8.493912 -3.516797
C -0.939663 -6.671229 -2.267606
H 3.922427 9.579135 -1.304568
C -0.550456 -5.375426 -1.980232
C -1.772184 -1.899891 2.594943
C -1.836409 -3.123483 3.370815
C -4.133266 -3.048596 4.131596
C -4.972006 -3.286628 5.398653
C 0.598103 0.235710 4.737735
C 0.116369 -0.781943 3.737482
C 5.254111 0.460370 -5.587179
C 6.506108 0.366762 -6.181856
C 7.525194 -0.399487 -5.629577
C 8.935872 -0.463676 -6.219390
N -0.838070 -0.926234 -1.507701
C 9.930418 0.059192 -5.157161
N -0.285763 1.841356 -1.156519
C 9.273376 -1.891868 -6.574688
N 2.181731 1.535793 -2.531027
C 9.099309 0.428276 -7.428339
N 1.595441 -1.212674 -2.952678
C 7.200678 -1.125619 -4.484206
N -1.364603 -0.704382 3.414181
C 5.959239 -1.046720 -3.896046
Cl 1.812663 -0.112244 0.367382
C -7.613736 2.244272 3.118825
O -2.808432 -2.985745 4.463867
O -4.874694 -2.100480 6.182515
O 0.113917 -0.122675 5.985811
C -1.785192 3.085408 0.088595
C -0.808563 3.933230 -0.311214
C 0.141183 3.157620 -1.069664
C 1.351026 3.651068 -1.558695
C 2.300788 2.883482 -2.230659
C 3.545999 3.380942 -2.735013
C 4.180994 2.357939 -3.325458