79
Ni1 H24 C48 Br2 N4
H 1.089553 1.423021 6.696383
Ni -0.875404 0.124987 1.587292
C -4.919967 -1.902646 3.320775
H -4.165288 -0.235486 5.226146
C -4.671718 -2.941016 4.191043
H -5.080457 -2.290592 0.710667
C -5.746035 -3.636146 4.779138
C -7.028882 -3.249642 4.495218
H -4.304845 -1.663244 -1.583741
C -7.266396 -2.211994 3.644157
H -4.065989 0.161114 -2.837459
C -6.228042 -1.547870 3.063047
H -4.672523 0.269277 -5.051546
Br 1.615627 -0.650473 -6.194769
H -2.971006 0.081794 -6.535752
Br 4.382819 -0.290433 -4.711645
H -0.872290 -0.170588 -5.973500
N 0.029728 -0.002574 -0.028642
H 5.579517 -0.559976 -2.460296
H 7.251512 -0.754671 -0.969105
N 0.765889 0.758176 2.411742
C 2.929552 1.393456 2.872719
N -1.812418 0.266393 3.233119
C 2.178631 1.862165 3.871852
H 6.679867 -0.408548 1.262442
C 0.833520 1.451144 3.617965
N -2.479606 -0.557813 0.713111
H 4.648245 -0.112901 1.891047
C -0.220669 1.686219 4.466931
C -1.468090 1.069687 4.302097
C -2.480143 0.969455 5.305769
H -3.880808 -3.213588 4.384514
H -5.448135 -4.324066 5.376313
H -7.678356 -3.675085 4.810568
H -8.139967 -1.915626 3.473037
H -6.355253 -0.826780 2.575528
C -0.529840 -0.104248 -1.280265
C 0.474162 -0.151118 -2.273461
C 1.679448 -0.126601 -1.619362
C 1.396846 0.003916 -0.230844
C 2.403532 0.227454 0.662125
C 2.070743 0.730775 1.943780
C -3.388602 0.077467 4.877620
C -2.992208 -0.340765 3.580598
C -3.760306 -1.158481 2.738616
C -3.525475 -1.204631 1.373845
C -4.415148 -1.756986 0.405095
C -3.974740 -1.402210 -0.801827
C -0.033072 2.594071 5.645216
C -2.753620 -0.675351 -0.618134
C -0.647658 3.842999 5.644518
C -1.847308 -0.291731 -1.638220
C -0.509980 4.720566 6.678922
C -2.121322 -0.187894 -3.075980
C 0.265632 4.371558 7.737074
H 3.757230 1.610504 2.757125
C 0.874850 3.148589 7.800284
C -3.447914 0.032038 -3.502383
C -3.795195 0.142365 -4.825946
H 2.493170 2.403703 4.646433
C 0.748713 2.250111 6.706162
H -2.520131 1.531185 6.088732
C -2.828766 0.037807 -5.780727
C -1.512103 -0.115064 -5.416835
C -1.099875 -0.228996 -4.088034
C 0.313940 -0.270819 -3.650804
C 1.569144 -0.360235 -4.309442
C 2.814955 -0.278751 -3.638232
C 2.924722 -0.187894 -2.211648
C 4.057545 -0.169867 -1.267343
C 5.398898 -0.397731 -1.615870
C 6.399412 -0.486425 -0.709282
C 6.125129 -0.364561 0.639425
C 4.838525 -0.143908 1.033351
H -1.103095 4.127109 4.876921
C 3.773333 -0.005458 0.136890
H -0.861555 5.663030 6.675430
H 0.480335 4.833777 8.501877
H 1.435760 2.749827 8.365679