20
H14 C6
H 1.856266 -1.347493 -0.176958
H 3.566884 -0.699488 -1.198871
H 3.485585 0.782542 -0.601570
H 2.222281 -0.145515 0.806886
H 2.571629 0.373706 -1.849148
C 0.534467 0.257188 -0.353389
C 1.938279 -0.362198 -0.117331
C 2.972015 0.056858 -1.010686
H -2.036379 0.400281 -0.798336
H -1.761956 1.383531 0.427621
H -3.861692 0.177465 0.469022
H -3.021793 0.157023 1.830483
H -3.003122 -1.116500 0.859129
H -0.323739 -0.147559 1.382147
H -0.652733 -1.210533 0.234837
C -1.852791 0.430943 0.173174
C -3.037391 -0.137339 0.895089
C -0.550246 -0.243636 0.422433
H 0.601201 1.232262 -0.187608
H 0.305936 0.138626 -1.308330