182
Hf2 H72 C96 N8 O4
C 2.756760 3.690814 -6.834023
O 1.449821 -0.372728 0.024288
C 2.091384 2.525799 -6.470576
C 1.708967 2.297402 -5.154387
C 3.161589 3.948000 -8.267674
C -5.247370 -1.170773 -1.658602
C -6.194306 -2.180325 -1.705321
C -6.967543 0.370425 -2.352486
C -5.656401 0.117077 -1.971495
N -1.536670 -1.755200 -2.191069
H -7.138440 3.539189 -0.336133
N 1.092618 -2.711779 -1.521187
N -0.364206 2.929428 -1.214141
H -8.027943 6.471880 -0.536935
N 2.326717 2.226772 -0.517258
H -8.452384 5.258882 -1.490790
O 0.689190 0.105753 -1.320753
H -7.714166 6.540974 -2.104328
C 7.775801 -5.947911 1.326924
O -1.449821 0.372728 -0.024288
Hf 0.365131 1.475270 0.311010
H 4.030081 0.978843 4.073206
H 1.940098 1.330075 5.351156
H -2.831002 3.310793 4.170066
H -3.968446 4.045884 2.088793
H -8.124598 -2.633280 -2.123281
H 2.797383 -3.876986 3.090033
C 7.497043 1.923139 2.093431
H 0.656972 -3.673540 4.325602
H -7.229491 1.259061 -2.557156
C 7.899070 0.644885 2.440623
H -4.338255 -2.594894 3.007353
H -5.477100 -1.754240 0.961519
H -9.351692 0.499018 -3.339731
H 0.486075 3.694653 5.890782
H -9.575819 -1.072889 -3.550747
H -0.179301 3.637074 8.119936
C 9.309669 0.380021 2.909703
H -9.917613 -0.397295 -2.139985
H -2.634891 0.535485 7.313626
H -2.010138 0.619934 5.066968
H -1.164059 1.702419 9.954905
H -2.674113 1.450991 9.487649
H -2.136209 2.944206 9.680676
H 3.227427 -5.851946 1.344411
H 5.297798 -6.834627 1.744334
H 5.068068 -2.544992 -0.079846
Hf -0.365131 -1.475270 -0.311010
H -2.821197 -5.032405 3.851344
H -4.030081 -0.978843 -4.073206
H -3.417934 -5.441215 6.055540
H -1.940098 -1.330075 -5.351156
H -1.895273 -1.873237 7.135090
H 2.831002 -3.310792 -4.170066
H -1.245305 -1.498973 4.932903
H 3.968446 -4.045884 -2.088793
H -2.431776 -4.404793 8.737007
H -2.797383 3.876986 -3.090033
H -3.353498 -3.095831 8.712282
H -0.656972 3.673540 -4.325602
H -3.962843 -4.512274 8.284338
H 4.338255 2.594894 -3.007353
H 5.944964 3.065122 1.465888
H 5.477100 1.754240 -0.961519
H -0.486075 -3.694652 -5.890782
H 5.033048 -0.834895 1.925241
H 0.179301 -3.637073 -8.119936
H 2.634891 -0.535485 -7.313626
H 2.010138 -0.619934 -5.066968
H 1.164059 -1.702419 -9.954905
H 2.674113 -1.450991 -9.487649
H 2.136209 -2.944206 -9.680676
H -3.227427 5.851946 -1.344411
H -5.297798 6.834627 -1.744334
H -5.068068 2.544992 0.079846
C 2.880030 1.443314 2.331760
C 3.184002 1.218756 3.713061
C 2.045157 1.414524 4.409591
C 1.021178 1.771514 3.470125
C -0.278758 2.172648 3.802696
H 2.821197 5.032405 -3.851344
C -1.224293 2.658231 2.901682
H 3.417934 5.441216 -6.055540
C -2.496213 3.226343 3.284916
H 1.895273 1.873237 -7.135090
C -7.775801 5.947911 -1.326924
C -3.122367 3.617881 2.148691
H 1.245305 1.498973 -4.932903
C -2.260880 3.264729 1.049674
H 2.431776 4.404794 -8.737007
H 3.353498 3.095831 -8.712282
C 2.580260 -3.498884 0.295026
H 3.962843 4.512274 -8.284338
C 1.680951 -3.314631 1.347405
C 1.955507 -3.629396 2.724722
H -5.944964 -3.065122 -1.465888
C 0.790047 -3.506561 3.400981
C -0.204516 -3.082396 2.467104
C -1.566086 -2.934610 2.758224
H -5.033048 0.834896 -1.925241
C -2.539637 -2.564185 1.838660
C -3.932025 -2.414479 2.167658
C -4.553977 -1.963444 1.048747
C -7.497043 -1.923139 -2.093431
C 3.556613 1.865560 -0.017138
C -7.899070 -0.644885 -2.440623
C 3.829767 1.468265 1.302494
C -0.672381 2.143858 5.251474
C -0.148484 3.045929 6.174605
C -9.309669 -0.380021 -2.909703
C -0.542107 3.007543 7.507779
C -1.455424 2.067086 7.957614
C -2.880030 -1.443314 -2.331760
C -1.997530 1.180370 7.027965
C -3.184002 -1.218755 -3.713061
C -1.617916 1.222594 5.687924
C -2.045157 -1.414524 -4.409591
H 7.138440 -3.539189 0.336133
C -1.895273 2.038297 9.395774
C -1.021178 -1.771514 -3.470125
C 0.278758 -2.172648 -3.802696
C 3.923621 -4.084270 0.596276
H 8.027943 -6.471880 0.536935
C 1.224293 -2.658230 -2.901682
C 4.020275 -5.372121 1.137377
H 8.452384 -5.258882 1.490790
C 2.496213 -3.226343 -3.284916
C 5.261378 -5.959426 1.376460
H 7.714166 -6.540974 2.104328
C 3.122367 -3.617880 -2.148691
C 6.440845 -5.291510 1.089201
C 2.260880 -3.264729 -1.049674
C 6.342790 -4.015176 0.545005
C -2.580260 3.498884 -0.295026
C 5.103088 -3.416354 0.296172
C -1.680951 3.314631 -1.347405
C -1.955507 3.629396 -2.724722
C -1.991927 -3.210989 4.167927
C -0.790047 3.506561 -3.400981
C -2.630689 -4.383681 4.517928
C 0.204516 3.082396 -2.467104
C -2.994895 -4.619755 5.832607
C 1.566086 2.934610 -2.758224
C -2.756760 -3.690814 6.834023
C 2.539637 2.564185 -1.838660
H 8.124598 2.633280 2.123281
C -2.091384 -2.525799 6.470576
C 3.932025 2.414479 -2.167658
H 7.229491 -1.259061 2.557156
C -1.708967 -2.297402 5.154387
C 4.553977 1.963444 -1.048747
C -3.161589 -3.948000 8.267674
C 5.247370 1.170773 1.658602
H 9.351692 -0.499018 3.339731
C -3.556613 -1.865560 0.017138
C 6.194306 2.180325 1.705321
H 9.575819 1.072889 3.550747
C -3.829767 -1.468264 -1.302494
H 9.917613 0.397295 2.139985
C 0.672381 -2.143858 -5.251474
C 0.148484 -3.045929 -6.174605
C 6.967543 -0.370425 2.352486
C 0.542107 -3.007543 -7.507779
C 5.656401 -0.117077 1.971495
C 1.455424 -2.067086 -7.957614
C 1.997530 -1.180369 -7.027965
C 1.617916 -1.222594 -5.687924
C 1.895273 -2.038297 -9.395774
C -3.923621 4.084270 -0.596276
C -4.020275 5.372121 -1.137377
C -5.261378 5.959427 -1.376460
C -6.440845 5.291510 -1.089201
C -6.342790 4.015176 -0.545005
N 1.536670 1.755200 2.191069
C -5.103088 3.416354 -0.296172
N -1.092618 2.711779 1.521187
N 0.364206 -2.929428 1.214141
C 1.991927 3.210989 -4.167927
N -2.326717 -2.226772 0.517258
C 2.630689 4.383681 -4.517928
C 2.994895 4.619755 -5.832607
O -0.689190 -0.105753 1.320753