89
Fe1 H34 C48 N6
C -0.486354 6.960599 3.338734
H 4.313164 -1.221230 2.906280
C 0.242772 6.839808 2.190902
H 6.466607 -1.501325 3.659514
C 0.313430 5.641090 1.530133
H 5.707730 0.745997 -0.266182
H -0.495767 -5.219145 -2.205127
H -0.187800 -6.897525 -3.827242
H 1.185848 -6.503642 -5.614426
H 2.227124 -4.510155 -5.868936
H 1.956346 -2.851469 -4.302510
H -5.416263 -0.901747 -0.310010
H -7.610381 -0.801088 -1.006931
H -8.213531 0.520609 -2.755999
H -6.622563 1.737270 -3.859313
C -0.813612 -2.136352 -2.100294
C -2.496738 -0.786427 -1.651432
C -2.741717 1.373803 -0.427543
C -1.372833 2.673180 0.714214
C 1.044416 2.578867 1.357359
C 2.659324 1.096335 1.108744
C 2.877457 -1.097376 -0.064291
C 1.567378 -2.283402 -1.385637
C -1.935541 -2.559996 -2.902045
C -2.961710 -1.752097 -2.607598
C -3.460964 2.570990 -0.104644
C -2.630035 3.359412 0.596943
C 2.223289 3.113454 1.990728
C 3.205413 2.203803 1.845726
C 3.648537 -2.210753 -0.541227
C 7.356806 -0.517492 2.185452
C 2.858515 -2.930683 -1.347991
C 7.140648 0.140511 1.035746
C -3.243296 0.315789 -1.204468
C -0.221735 3.191574 1.328888
C 3.363929 -0.055336 0.738788
C 0.464508 -2.722363 -2.129183
C -1.018730 -2.008340 2.345165
C -0.603265 -0.952952 4.198592
C -0.181757 -0.220548 3.162504
C -1.435937 -3.090863 1.414566
C -4.668427 0.388658 -1.646674
C 4.772092 -0.192976 1.240314
C 5.022417 -0.870893 2.417167
C 6.312043 -1.032604 2.871249
C 5.844514 0.302441 0.539548
C 0.673461 -3.845368 -3.094411
C 0.049276 -5.061810 -2.942875
C 0.239867 -6.076060 -3.915266
C 1.056851 -5.836010 -4.980317
C 1.679757 -4.655235 -5.131838
C 1.508923 -3.659149 -4.198160
C -5.644740 -0.352718 -1.025143
C -6.965278 -0.295605 -1.446405
C -7.324611 0.482752 -2.484151
C -6.383744 1.211436 -3.130681
C -5.071573 1.172485 -2.708774
H -1.684635 5.949632 4.586916
H -0.517848 7.772436 3.791875
H 0.696588 7.577683 1.854087
H 0.808153 5.577631 0.744676
N -1.184799 -1.058425 -1.331820
N -1.469291 1.453018 0.088246
N 1.338321 1.351921 0.819109
N 1.602126 -1.174621 -0.579348
N -0.430920 -0.883366 1.980967
N -1.136803 -2.073769 3.662118
Fe -0.026030 -0.041331 0.068168
H -1.943792 -3.262858 -3.510961
H -3.820646 -1.805490 -2.959857
H 8.222599 -0.617276 2.509620
H -4.340122 2.765743 -0.338370
H 7.861174 0.492162 0.563804
H -2.831666 4.199040 0.943861
H 2.293366 3.934263 2.421221
H 4.076087 2.277765 2.164117
H 4.533970 -2.398504 -0.329090
H 3.097566 -3.707071 -1.801168
H -1.492882 -2.720175 4.102759
H -0.542253 -0.735441 5.101026
H 0.221273 0.614703 3.228982
H -2.279650 -2.862410 1.015665
H -1.524260 -3.914954 1.899620
H -0.774680 -3.195023 0.727235
H -4.438904 1.689129 -3.154125
H -1.585853 3.932075 3.488319
C -0.342365 4.520493 2.015226
C -1.109957 4.659446 3.159920
C -1.172480 5.870418 3.815182