94
Fe1 H40 C36 N8 Cl1 O8
Fe -0.020142 0.117566 0.260488
C -4.966832 -1.449106 2.813465
C -4.800632 0.671534 -2.883958
H -1.385395 -4.803095 3.115295
C -5.970275 1.554673 -2.423284
H -2.974067 -4.605150 3.152670
H -2.083325 -4.151123 5.284266
H -2.702499 -2.802883 4.687185
H -1.119259 -3.032665 4.665700
H -4.600758 -3.460392 2.498445
H -5.092296 -2.707371 1.176231
H -5.926010 -1.528007 2.989292
C 5.203383 -2.145374 -0.084587
H -4.790856 -0.614415 2.327263
C -2.688649 2.026696 -2.592467
C 5.316899 -2.153679 -1.624092
H -4.478553 -1.442185 3.663121
C -1.486419 1.927031 -1.786856
C 3.477027 -4.372600 1.116479
H -5.027120 -0.275279 -2.704654
C -0.427032 2.833702 -1.702012
H -4.693092 0.772583 -3.860701
C 3.516132 -5.234975 -0.148110
N -1.170585 -1.571472 0.564461
C 0.818921 2.691126 -1.105587
H -6.778733 1.311049 -2.919896
N -1.516291 0.802898 -0.983877
C 1.878850 3.685003 -0.939665
H -6.124254 1.420403 -1.464297
N 1.242838 1.461930 -0.656048
C 2.963492 3.005346 -0.434096
N 1.628464 -1.121043 0.511802
C 2.561300 1.616963 -0.309304
N -4.649641 -1.136270 -0.544413
N 4.827805 0.755972 0.082373
H -2.558568 1.589279 -5.260473
N 0.727131 -4.234177 2.281243
H 5.107792 4.222084 1.837281
Cl -0.331984 1.179270 2.152284
O -4.908445 -2.174166 -1.121680
O -5.476565 -0.355703 -0.079650
O 5.407874 0.897164 -0.947716
O 5.279151 0.729672 1.200046
O 1.139642 -4.135481 3.425287
C -2.957502 2.941672 -3.751002
O 0.475659 -5.299065 1.723859
C -2.225355 2.473802 -5.001045
C 1.789504 5.167513 -1.093011
H 5.564026 -2.995291 0.272056
H 5.751407 -1.404811 0.280284
C 1.111399 5.805643 0.111606
C 4.225468 3.640708 0.057231
H 6.256523 -2.246422 -1.881026
C 4.264302 3.795742 1.574906
H 4.961145 -1.313451 -1.982317
H 4.803636 -2.905316 -1.984539
H 2.883651 -4.803095 1.780309
H 4.385421 -4.332457 1.506330
H 3.836854 -6.133340 0.080696
H 4.119285 -4.828011 -0.801195
H -5.754922 2.495950 -2.590483
H 2.614799 -5.297265 -0.527219
C -0.816732 -2.582790 1.450083
C -2.008100 -3.137867 2.085598
H -2.661764 3.859416 -3.521836
C -3.082966 -2.496968 1.519236
H -3.929986 2.969356 -3.931101
C -2.543089 -1.561229 0.550690
N -0.673616 4.140415 -2.357557
H -2.382049 3.110548 -5.729187
C -3.229341 -0.783291 -0.380935
C -2.768762 0.260418 -1.178304
H -1.263190 2.419817 -4.815398
H 1.275969 5.382069 -1.910313
C -3.483528 0.988523 -2.214298
H 2.698985 5.542640 -1.192802
H 1.055999 6.774604 -0.018836
O -0.154378 4.339605 -3.444173
H 1.631723 5.613235 0.919976
O -1.390827 4.925827 -1.764258
H 0.208708 5.437438 0.210414
H 4.320245 4.534920 -0.359739
H 4.996449 3.091168 -0.229563
C 3.340157 0.504043 -0.009667
H 4.198039 2.912603 1.994899
C 2.941223 -0.813744 0.231182
H 3.510973 4.352202 1.866694
C 3.777924 -1.976498 0.374116
C 2.992278 -2.971759 0.862390
C 1.649375 -2.416683 0.972663
C 0.506075 -2.989754 1.520614
C -2.106136 -4.131744 3.212387
C -1.992893 -3.470082 4.586301
C -4.506796 -2.628470 1.970788