91
Fe1 H34 C49 N7
C 1.710691 0.400385 -2.937872
C -3.004068 0.012879 -1.783099
C -2.552572 -0.941111 4.107235
C -3.039442 -2.199313 4.439780
C -3.805030 -2.375558 5.583229
C -4.067218 -1.308330 6.421042
C -3.565950 -0.059492 6.104751
C -2.820093 0.123971 4.948531
C 4.206009 -0.935064 2.358106
H -4.151296 -3.235329 5.790857
C 4.583737 -0.094020 3.402315
C 2.468992 0.636908 -4.204828
C 3.413401 -0.294259 -4.652933
C 4.105044 -0.084656 -5.835082
C 3.868986 1.058746 -6.591948
C 2.944485 1.984451 -6.164879
C 2.240755 1.780701 -4.972781
C -4.283367 0.005466 -2.551004
C -4.942837 -1.197238 -2.799204
H 5.070606 0.076959 -0.007645
C -6.078510 -1.232253 -3.593543
C -6.589909 -0.058322 -4.133834
C -5.980389 1.151112 -3.850184
C -4.824630 1.180470 -3.071416
C -0.049967 -2.059740 -0.494449
C -1.031527 2.649347 0.410209
C -0.603850 3.867852 0.813941
C 1.062598 2.463738 0.851726
C 1.616659 4.798238 1.564233
H 6.828598 -2.891031 2.407745
H 7.459626 -1.454340 4.136585
H 6.044701 0.293487 4.764867
N -1.967404 -0.234763 0.441056
N 0.460366 -0.663819 1.820968
N 1.899289 -0.100555 -0.529406
N -0.538258 0.165033 -1.942957
N 0.022912 1.762559 0.427759
N 0.723976 3.739984 1.089504
Fe -0.033382 -0.194676 -0.047555
H -5.148498 0.100368 0.029217
H -4.517470 -0.209794 2.413504
H -0.045167 -1.638681 4.844147
H 2.354518 -1.670868 4.223983
H 4.450243 0.706060 -2.324066
H -0.050500 0.275931 -5.122323
H -2.451963 0.028192 -4.535583
H -2.846578 -2.942724 3.881036
H -4.586794 -1.431907 7.205335
H -3.731795 0.676799 6.681423
H -2.491069 0.988911 4.733262
H 4.807530 -2.558437 1.276248
C 5.053186 -1.978493 1.988313
H 4.011190 0.616328 3.667416
C 6.259606 -2.173173 2.658493
C 6.632002 -1.325887 3.686549
H 3.581024 -1.076880 -4.142688
C 5.791578 -0.288017 4.057839
H 4.743538 -0.723803 -6.131222
H 4.345368 1.200562 -7.400860
H 2.782906 2.765024 -6.680893
H 1.604394 2.424627 -4.685360
H -4.609902 -2.002487 -2.418704
H -6.508320 -2.061008 -3.770164
H -7.356209 -0.085924 -4.694117
H -6.348341 1.960360 -4.185140
H -4.400152 2.011078 -2.892904
H -1.922255 2.437306 0.154816
H -1.127692 4.657203 0.890698
H 1.935017 2.109589 0.971686
H 2.539383 4.466034 1.575555
H 1.353760 5.066850 2.468816
N -0.012638 -3.181002 -0.795606
H 1.556400 5.570130 0.963991
C -3.050818 -0.059785 -0.395433
C -2.498712 -0.366532 1.703184
C -0.408675 -0.924530 2.853298
C 1.721534 -0.927944 2.310038
C 2.976125 -0.262853 0.311052
C 2.426153 0.261008 -1.749047
C 0.323140 0.273200 -3.011276
C -1.804581 0.075496 -2.493930
C -4.270569 -0.023502 0.369819
C -3.928036 -0.199357 1.669582
C 0.322962 -1.388114 4.004498
C 1.631768 -1.400989 3.668732
C 4.194988 0.083982 -0.375912
C 3.858499 0.419795 -1.638722
C -0.415430 0.225017 -4.245862
C -1.724592 0.094613 -3.928191
C -1.786984 -0.724779 2.841453
C 2.917644 -0.706052 1.629108