99
Cd1 H37 C53 N5 O3
Cd -0.382839 1.302193 -0.225074
H -5.397336 2.094673 5.718016
H -4.565151 1.357083 7.560223
H -2.213436 0.259275 7.658255
H -1.091566 0.051149 5.575802
H 4.164897 1.694430 3.598138
H 6.058383 3.176471 4.555262
C 3.964751 2.640146 1.864887
H 0.435863 -1.218192 0.405800
C 4.494084 2.446886 3.143266
H 4.986549 0.816184 -0.075898
H 4.417713 -0.469166 -2.115894
C 2.426788 -0.741331 -4.064458
H -0.338385 -0.568655 -4.882976
H -2.663765 -0.989482 -3.989585
C 3.298476 0.171222 -4.603149
H -4.409774 -2.190209 1.124921
C 3.948950 -0.078072 -5.806765
C 3.698768 -1.237632 -6.475432
H -3.869907 -0.852256 3.301431
H -3.904142 2.122118 3.405771
C 2.832347 -2.150185 -5.970492
C 2.173972 -1.897460 -4.753736
C -3.977880 -2.182204 -1.613990
C -3.780368 -3.320036 -2.361975
C -4.868003 -4.063344 -2.805381
C -6.145250 -3.649379 -2.531718
C -6.350663 -2.504685 -1.792569
C 6.103152 4.145058 2.770148
C 5.634389 4.321165 1.506291
C -5.297263 -1.743081 -1.355670
C 0.204115 -3.067312 -0.845072
C 4.549388 3.579001 1.025002
C 0.959929 -3.833490 0.168650
C 0.491167 -5.081103 0.514184
H 3.601328 0.811610 -4.061943
C 1.152175 -5.849569 1.404431
H 4.501985 0.732705 -6.309699
C 2.318815 -5.426456 1.944916
H 3.935783 -1.414882 -7.315618
C 2.850781 -4.209718 1.610601
H 2.592698 -3.039867 -6.607126
C 0.214649 2.374843 3.919153
C 2.137103 -3.357774 0.699155
H 1.389190 -2.756266 -4.622650
C -1.268010 3.305692 -1.700473
H -2.837576 -3.619647 -2.507996
H -4.570418 -4.850106 -3.343424
H -6.911598 -4.266896 -2.953753
H -7.143346 -2.057557 -1.900416
H -5.531645 -0.710455 -0.816104
H -0.456893 -5.644874 0.187548
H 6.840532 4.648220 3.312538
H 5.997812 4.892940 0.960006
H 0.946762 -6.829591 1.671751
H 4.156997 3.660193 0.098410
H 2.885017 -6.057695 2.643823
N -1.949296 -0.068924 0.796660
H 3.706668 -3.600206 1.900947
N 0.415059 1.339930 1.880346
H 2.410987 -2.429211 0.850107
N 1.838991 0.698398 -0.595814
N -0.439775 -0.906002 -1.618794
N 0.122740 -1.724784 -0.616653
C -2.308242 0.122049 2.106801
O -0.318371 -3.591058 -1.815654
O -1.154770 2.175865 -2.198954
C -1.755208 4.441237 -2.563100
C -1.707805 0.941974 3.053624
C -0.438458 1.554917 2.947577
C -2.439917 1.120368 4.364800
C 1.455027 2.627567 3.466803
C -3.667128 1.764187 4.397964
C 1.586702 1.965452 2.181872
C -4.336036 1.905987 5.605310
C 2.753342 1.889977 1.398326
C -3.793535 1.414261 6.760529
C 2.853415 1.169541 0.178882
C -2.595294 0.763581 6.741074
C 4.114861 0.784164 -0.423988
C -1.918485 0.614919 5.546441
C 3.840977 0.102609 -1.544454
C 2.408354 0.080881 -1.680574
H -2.613728 4.265131 -2.530204
H -1.483957 4.652794 -3.368663
C 1.710476 -0.456587 -2.784087
H -0.275181 2.842554 4.639166
C 5.555384 3.194768 3.589647
C 0.327890 -0.697876 -2.794876
H -1.470790 5.400676 -2.215298
H 2.134470 3.191337 3.711180
C -0.556966 -0.718460 -3.862312
C -1.834213 -0.989482 -3.386990
C -1.771009 -1.143861 -1.998093
O -0.959891 3.526397 -0.522115
C -2.811241 -1.414882 -1.091280
C -2.790173 -1.005491 0.250280
C -3.696096 -1.478921 1.289842
C -3.401144 -0.793935 2.416202