103
Tm1 B1 H38 C53 N10
Tm 0.229461 -0.340095 0.295681
B 1.713630 -2.914170 2.376819
H -3.330273 2.569670 3.208081
H -5.148637 -1.030241 -0.152490
H -4.209301 -2.289114 -2.068726
H 0.238836 -1.985349 -4.843184
H 2.316705 -0.653455 -4.664235
H 4.286751 2.826702 -1.214557
H -4.613179 -0.708951 3.224364
H -6.868316 -0.486968 3.886388
H -8.224321 1.107799 2.914105
H -7.394636 2.489347 1.243962
H -5.179705 2.261523 0.533804
H -1.831722 -4.402328 -2.844858
H -2.920913 -5.680186 -4.468128
H -3.874869 -4.644756 -6.318156
H -3.772529 -2.332927 -6.543700
H -2.692476 -1.040464 -4.920956
H 4.889827 -0.577514 -2.315664
H 6.702708 -0.462141 -3.794502
H 6.704535 1.112181 -5.507223
H 3.811601 0.565987 4.501183
H 4.939169 2.598878 -5.713238
H 3.480823 -1.916710 4.389348
H 3.128116 2.489347 -4.232742
H 2.128472 -3.634152 2.999067
H -2.674201 -2.053988 1.858012
H -2.623030 -4.002175 3.438263
H -0.194282 -4.523542 3.780295
H 2.015167 -2.544686 -2.095451
H 3.374828 -4.587800 -1.560580
C 1.019362 4.542684 2.159189
H 3.261523 -4.841911 0.944089
C 1.556465 4.639071 3.431159
H 2.400770 1.516714 2.669527
C 1.649667 5.870196 4.075094
C 1.212894 7.010776 3.451584
C 0.708504 6.940677 2.168720
C 0.607991 5.713932 1.528054
C -0.458538 2.604720 1.861451
C -1.419621 3.197646 2.751458
C -2.532569 2.433852 2.709176
C -2.283115 1.379436 1.768484
C -3.288972 0.560146 1.252958
C -3.148803 -0.314640 0.164362
C -4.242379 -1.033162 -0.437949
C -3.730313 -1.710792 -1.485346
C -2.330630 -1.402646 -1.559331
C -1.525433 -1.744381 -2.647684
C -0.242345 -1.236159 -2.894067
C 0.499255 -1.443537 -4.107697
C 1.634133 -0.722094 -4.008625
C 1.617138 -0.073672 -2.717780
C 2.620436 0.789430 -2.252920
C 2.531071 1.594116 -1.112591
C 3.448659 2.661676 -0.800258
C 2.886703 3.381658 0.195652
C 1.646195 2.740538 0.542611
C 0.753461 3.213710 1.509008
C -4.681710 0.733934 1.790283
C -5.174222 -0.067831 2.804557
C -6.517435 0.076750 3.206843
C -7.321536 1.017254 2.628602
C -6.833593 1.832163 1.640471
C -5.515965 1.694884 1.218850
C -2.154642 -2.595800 -3.716276
C -2.227194 -3.974428 -3.595143
C -2.871571 -4.736762 -4.561395
C -3.438096 -4.123389 -5.654068
C -3.375961 -2.753525 -5.789508
C -2.735056 -1.985349 -4.824464
C 3.823297 0.932550 -3.141172
C 4.890558 0.069448 -3.010848
C 5.971707 0.136627 -3.890919
C 5.975362 1.071289 -4.898368
C 4.930032 1.944614 -5.022576
C 3.849978 1.877435 -4.140733
H -1.294437 3.981886 3.273168
C -1.885817 -2.476047 2.177939
C -1.877410 -3.556750 3.053242
C -0.544979 -3.831307 3.231982
C 2.159540 -2.892264 -1.222577
C 2.916125 -4.028463 -0.943931
C 2.846680 -4.158439 0.431732
C 2.472043 0.592275 2.875547
H 3.245076 4.167358 0.593278
C 3.263351 0.084052 3.893394
C 3.073473 -1.271209 3.822632
H 2.018822 5.921311 4.949832
N -0.974807 1.439604 1.311030
N -1.975912 -0.578244 -0.506258
N 0.465264 -0.406938 -2.043232
N 1.463810 1.613101 -0.231761
N -0.644943 -2.102474 1.840632
N 0.182549 -2.964116 2.509995
N 1.663373 -2.354395 -0.101341
N 2.096308 -3.160249 0.917284
N 1.824924 -0.375247 2.219201
N 2.217106 -1.538464 2.820691
H 1.867140 3.854830 3.870540
H 1.256754 7.846131 3.901049
H 0.428896 7.732219 1.724719
H 0.255284 5.671581 0.646884