79
Sn1 H28 C44 N4 F2
H 1.754320 -6.547680 3.716080
H -0.252623 -7.467445 4.474324
H 2.280895 6.415776 -3.982067
C 0.931345 -6.114535 3.523767
C -0.260009 -6.662829 3.968841
C 1.463581 6.038007 -3.677719
H -2.280895 -6.415776 3.982067
H -1.754320 6.547680 -3.716080
H 0.252623 7.467445 -4.474324
C -0.931345 6.114535 -3.523767
C -1.463581 -6.038007 3.677719
C 0.260009 6.662829 -3.968841
H 0.472089 -5.163280 0.036705
H 1.146308 -4.518018 -2.269920
H 1.808575 0.133093 -4.864196
H 1.340564 2.515688 -4.338851
H 0.061399 -2.011837 -5.233133
H 0.802206 -3.263145 -7.065616
H 2.808525 -4.456225 -6.951012
H 4.100879 -4.364724 -5.009464
H 3.377448 -3.112228 -3.174489
H 2.300379 4.432459 -2.732228
C 0.515893 -4.279283 -0.309579
C 0.888796 -3.923498 -1.575340
C 0.822034 -2.490257 -1.669674
C 1.149617 -1.712379 -2.800122
C 1.068460 -0.312649 -2.903005
C 1.447967 0.467963 -4.051928
C 1.196087 1.776192 -3.759716
C 0.670256 1.839767 -2.416161
C 1.635093 -2.460074 -4.008585
C 0.878157 -2.494179 -5.179480
C 1.321880 -3.237834 -6.270600
C 2.516810 -3.942393 -6.206694
C 3.278851 -3.891770 -5.054493
C 2.844754 -3.149185 -3.960648
C 1.474156 4.854315 -2.938291
N 0.385311 -2.003400 -0.450958
N 0.615044 0.550076 -1.924085
Sn -0.000000 0.000000 0.000000
H -1.742844 4.551291 -2.492090
H 1.742844 -4.551291 2.492090
C -0.201124 3.068497 -0.403411
C 0.201124 -3.068497 0.403411
C 0.260384 2.998386 -1.731939
C -0.260384 -2.998386 1.731939
C 0.279173 4.289384 -2.501344
C -0.923565 4.927278 -2.792818
C -0.279173 -4.289384 2.501344
C 0.923565 -4.927278 2.792818
F -1.876442 -0.180744 -0.647388
H -0.472089 5.163280 -0.036705
H -1.146308 4.518018 2.269920
H -1.808575 -0.133093 4.864196
F 1.876442 0.180744 0.647388
H -1.340564 -2.515688 4.338851
H -0.061399 2.011837 5.233133
H -0.802206 3.263145 7.065616
H -2.808525 4.456225 6.951012
H -4.100879 4.364724 5.009464
H -3.377448 3.112228 3.174489
H -2.300379 -4.432459 2.732228
C -0.515893 4.279283 0.309579
C -0.888796 3.923498 1.575340
C -0.822034 2.490257 1.669674
C -1.149617 1.712379 2.800122
C -1.068460 0.312649 2.903005
C -1.447967 -0.467963 4.051928
C -1.196087 -1.776192 3.759716
C -0.670256 -1.839767 2.416161
C -1.635093 2.460074 4.008585
C -0.878157 2.494179 5.179480
C -1.321880 3.237834 6.270600
C -2.516810 3.942393 6.206694
C -3.278851 3.891770 5.054493
C -2.844754 3.149185 3.960648
C -1.474156 -4.854315 2.938291
N -0.385311 2.003400 0.450958
N -0.615044 -0.550076 1.924085