74
Fe1 H36 C32 N4 F1
C -3.145120 -4.342237 1.711774
C 0.661299 3.349979 -0.219199
C 3.184325 4.333984 -1.720289
C -4.489652 -1.720464 3.002813
H -1.050949 -4.213390 -0.053064
C -5.810083 -1.829705 2.318528
C 4.536468 1.713611 -2.949779
H -3.469837 0.843888 2.456118
C -3.434321 3.608515 2.637889
C 5.770646 1.794841 -2.077060
C 3.270578 -3.578954 -2.880498
C -1.234871 5.391236 1.175478
C 0.964580 -5.336887 -1.585395
C 1.611477 -6.060676 -0.423426
H -0.300041 5.643470 1.109767
Fe 0.157100 -0.023314 0.212425
H 3.380932 -0.819930 -2.606446
N -1.515954 -1.101714 0.747689
N -0.890620 1.678738 0.671641
H 0.860569 4.258356 -0.248984
H 3.592759 4.590279 -0.889939
C 1.516853 2.503784 -0.896653
H 2.446102 4.919401 -1.907416
N 1.371111 1.136737 -0.981508
C 2.689893 2.924641 -1.618431
H 3.828686 4.397007 -2.429007
H -1.579883 5.744308 2.010697
N 0.733853 -1.640494 -0.923282
C 3.254850 1.803804 -2.144391
H 4.547883 0.876100 -3.439637
H -1.623009 5.706494 -0.804161
C -1.642035 -2.469042 0.683113
C 2.424538 0.690111 -1.743963
H 4.556762 2.436279 -3.597452
H -1.921089 6.968362 0.077431
C -2.757870 -2.910906 1.499866
C 2.638649 -0.638982 -2.075234
H -2.916804 5.758313 0.079886
H 5.730056 2.587535 -1.537723
C -3.303800 -1.789230 2.049100
C 1.868334 -1.725086 -1.702824
C -1.992121 6.013207 0.026594
H 6.554533 1.825653 -2.631656
C -2.523338 -0.663772 1.570459
C 2.122146 -3.103898 -2.065232
H 5.812504 1.023155 -1.509526
C 1.136705 -3.847014 -1.517159
C -2.749118 0.666722 1.895585
H 4.008802 -3.787632 -2.302858
C -0.466458 2.981082 0.502107
C 0.278235 -2.929533 -0.799255
H -3.809775 -4.394057 2.404128
F 1.206596 -0.179892 1.711184
H 3.531874 -2.891299 -3.497693
C -0.833160 -3.309494 -0.054236
H -2.371380 -4.846425 1.972145
C -2.008103 1.757587 1.468405
H 3.014356 -4.364646 -3.367751
H 1.351450 -5.661527 -2.414477
H -3.502816 -4.700771 0.897503
C -2.299080 3.141161 1.796443
C -1.338628 3.892540 1.195674
H 0.017066 -5.545284 -1.598108
H -4.413546 -2.438931 3.651421
H -4.455404 -0.881553 3.486724
H 2.548844 -5.857600 -0.400500
H 1.490977 -7.007427 -0.527602
H -5.915363 -1.094432 1.708363
H 1.203044 -5.776370 0.398041
H -6.512791 -1.807296 2.971691
H -5.851941 -2.656011 1.831929
H -3.247863 4.490842 2.965858
H -3.551017 3.009092 3.378440
H -4.237235 3.625321 2.110614