82
Hg1 H31 C45 N4 Cl1
Hg 0.517734 0.210337 0.572123
H 1.058476 -4.584796 0.577032
H -3.661054 -2.722934 2.510354
H -4.190827 -0.400812 3.080116
H 2.390579 0.444094 -4.574546
H -2.134248 4.377127 1.847570
H -0.587022 5.146419 0.112360
H 1.846911 2.766217 -3.973010
H 1.732355 -3.826463 -3.807406
H -1.522529 -5.355184 -0.301313
H -1.849559 -7.517311 0.460889
H 2.563749 -3.820983 -1.206245
H 4.207794 -0.702173 -3.332953
H -2.343133 1.503789 4.683833
H 5.773209 -1.755292 -4.699143
H -5.523211 3.763447 5.603353
H 5.294493 -3.771670 -5.662099
H -5.954749 4.073575 3.373761
H 3.303204 -4.856569 -5.184044
H -4.588016 3.074153 1.770496
H -1.941184 -1.400234 -1.078694
H -0.784907 4.823141 -2.945302
H -0.958311 -0.615600 -2.013378
H -0.193250 6.860341 -3.849797
H -1.440981 -2.053365 -2.413264
H 1.904027 7.687713 -3.559546
H 3.436121 6.507474 -2.311816
H 2.836292 4.488905 -1.336337
C 1.773471 -1.484615 -2.575377
C 1.173370 -2.298837 -1.607637
C 1.748793 -3.433050 -0.980424
C 0.908592 -3.861530 0.011743
C -0.220548 -3.017720 0.028171
C -1.276959 -3.077992 0.973238
C -1.971224 -1.961313 1.448835
C -3.176911 -1.970080 2.256025
C -3.469224 -0.694502 2.572286
C -2.445441 0.130679 1.969313
C -2.410019 1.550911 2.044191
C -1.603236 2.391433 1.278553
C -1.629470 3.836869 1.282448
C -0.783929 4.260966 0.319125
C -0.243821 3.097166 -0.331868
C 1.561808 -0.100547 -2.695398
C 0.582376 3.104837 -1.477453
C 1.041594 1.970624 -2.167197
C 1.678273 2.007883 -3.461437
C 1.983361 0.730113 -3.788160
C -1.554007 -4.444526 1.487686
C -1.616572 -5.509700 0.610657
C -1.819632 -6.810483 1.065687
C -1.706939 -4.711916 2.848413
C 2.793242 -2.144321 -3.446249
C 4.014158 -1.531737 -3.707891
C -3.314958 2.193083 3.063259
C 4.954447 -2.164047 -4.533360
C 4.676564 -3.373873 -5.092504
C -3.066809 2.021033 4.411826
C -3.887594 2.612797 5.368264
C 3.478579 -4.018238 -4.819528
C 2.535926 -3.397982 -3.992562
C -4.969573 3.373322 4.965987
C -5.229106 3.555234 3.639738
C -4.404100 2.956896 2.674856
C 0.952530 4.438495 -2.049228
C -1.198053 -1.483519 -1.679705
C 0.071597 5.157378 -2.800534
C 0.428894 6.379259 -3.353142
N -0.056458 -2.065420 -0.966867
C 1.666437 6.873491 -3.177939
N -1.569152 -0.661626 1.282464
C 2.577235 6.171046 -2.432510
C 2.220209 4.954644 -1.855106
Cl 2.350111 -0.802444 1.602565
N -0.741926 1.980487 0.289999
N 0.972278 0.672033 -1.717908
H -2.128866 -7.908532 2.693641
H -1.977932 -6.170502 4.208946
H -1.680369 -4.011663 3.459942
H -3.708875 2.497731 6.274887
C -1.972344 -7.042805 2.391971
C -1.899352 -6.001740 3.297454