77
Fe1 H20 C44 N4 F8
C 0.956396 6.885318 -3.424751
H -2.703152 -4.355129 0.355438
C 0.002179 6.715776 -2.433675
C -0.098869 5.464221 -1.845571
H -3.788534 -3.128299 -1.514694
N 1.300358 1.502219 0.235704
H -4.324092 -2.906951 -5.727208
C -0.506630 -3.035286 1.527058
H -6.332980 -1.706024 -5.717079
C -1.365544 -2.680894 0.490514
F 2.368106 2.640039 4.118799
H -6.713993 -0.054159 -4.106909
C 1.943702 -0.572207 2.279885
C 2.248433 -1.565915 3.288613
C 1.380405 -2.591413 3.108980
C 0.534171 -2.234667 1.996410
N -0.885464 0.998771 -1.492663
F 2.436463 3.594188 -3.557360
C -0.690896 -4.375144 2.179777
F -1.033471 5.285848 -0.871022
C -1.627875 -4.620039 3.179947
C -1.775882 -5.844514 3.813220
C -2.450728 -3.505060 0.016409
C -0.956396 -6.885318 3.424751
F -5.141596 0.678524 -2.254082
C -3.042557 -2.835131 -1.004488
Fe 0.000000 0.000000 0.000000
C -0.002179 -6.715776 2.433675
H 2.703152 4.355129 -0.355438
C -2.324318 -1.595350 -1.167914
C 0.098869 -5.464221 1.845571
H 3.788534 3.128299 1.514694
C -2.615378 -0.644027 -2.140362
H 4.324092 2.906951 5.727208
H 6.332980 1.706024 5.717079
H 6.713993 0.054159 4.106909
C -3.694816 -0.959565 -3.137354
H -2.927441 1.509401 -3.950608
C -3.534922 -1.937967 -4.114320
H -1.337608 3.392032 -3.618622
C -4.482402 -2.233490 -5.076294
H 2.424376 5.963430 -4.496859
N 0.885464 -0.998771 1.492663
C -5.667842 -1.519998 -5.064930
H 1.047935 7.733032 -3.843873
C -5.897876 -0.540417 -4.116763
H -0.562504 7.431623 -2.166736
F -2.436463 -3.594188 3.557360
C -4.911958 -0.286103 -3.185830
F 1.033471 -5.285848 0.871022
F 5.141596 -0.678524 2.254082
C 2.450728 3.505060 -0.016409
C 3.042557 2.835131 1.004488
C 2.324318 1.595350 1.167914
C 2.615378 0.644027 2.140362
N -1.300358 -1.502219 -0.235704
C 0.506630 3.035286 -1.527058
C 1.365544 2.680894 -0.490514
F -2.368106 -2.640039 -4.118799
H 2.927441 -1.509401 3.950608
C 3.694816 0.959565 3.137354
H 1.337608 -3.392032 3.618622
C -1.943702 0.572207 -2.279885
C 3.534922 1.937967 4.114320
C -2.248433 1.565915 -3.288613
H -2.424376 -5.963430 4.496859
C 4.482402 2.233490 5.076294
C -1.380405 2.591413 -3.108980
H -1.047935 -7.733032 3.843873
C 5.667842 1.519998 5.064930
C -0.534171 2.234667 -1.996410
H 0.562504 -7.431623 2.166736
C 5.897876 0.540417 4.116763
C 0.690896 4.375144 -2.179777
C 4.911958 0.286103 3.185830
C 1.627875 4.620039 -3.179947
C 1.775882 5.844514 -3.813220