81
Zn1 H24 C48 N8
C 0.551928 4.033120 6.532685
H 1.662250 -2.622049 -4.664907
C 1.643209 3.883917 5.698231
H 1.426630 -3.706954 -6.686649
C -0.822853 2.921612 4.931649
C 1.497089 3.218862 4.498920
C -0.685419 3.576257 6.139638
H -1.641146 -0.512381 -4.816549
C 0.717266 4.650753 7.823918
H -2.470472 -4.229745 -5.943319
H -2.233508 -3.114767 -3.940645
C 0.611446 -2.398822 -1.809209
C 1.257534 -3.680352 -1.800680
N 0.845130 5.106460 8.860098
C -0.831592 -0.666211 -2.862318
C -0.153682 -1.886441 -2.863903
N -0.836543 1.759213 0.617971
C 1.846150 -3.827242 -0.605591
C 0.822853 -2.921612 -4.931649
C 0.685419 -3.576257 -6.139638
C -1.543322 -0.119131 -3.980521
C -0.268488 -2.705325 -4.116504
C -0.551928 -4.033120 -6.532685
C -1.643209 -3.883917 -5.698231
C -1.497089 -3.218862 -4.498920
C -0.717266 -4.650753 -7.823918
N 0.836543 -1.759213 -0.617971
N -0.845130 -5.106460 -8.860098
H 2.546083 -1.650491 4.119935
H 1.119276 -4.025024 3.328826
H 2.192689 -5.604961 4.612469
H 5.546074 -4.987328 2.509647
H 4.445130 -3.396981 1.247319
C 1.584579 -2.626675 0.147941
C 1.964916 -2.410388 1.472172
C 1.651238 -1.273434 2.223277
C 2.042338 -1.068713 3.596409
C 2.685238 -3.505703 2.193577
C 2.020125 -4.200829 3.178495
C 2.656229 -5.149254 3.947427
C 3.995610 -5.415276 3.715954
C 4.658903 -4.779137 2.692555
C 3.995366 -3.827242 1.938688
C 4.667163 -6.371798 4.570300
N 0.915308 -0.198938 1.798793
N 5.167754 -7.106249 5.262657
H -2.546083 1.650491 -4.119935
H -1.119276 4.025024 -3.328826
H -2.192689 5.604961 -4.612469
H -5.546074 4.987328 -2.509647
H -4.445130 3.396981 -1.247319
C -1.584579 2.626675 -0.147941
C -1.964916 2.410388 -1.472172
C -1.651238 1.273434 -2.223277
C -2.042338 1.068713 -3.596409
C -2.685238 3.505703 -2.193577
C -2.020125 4.200829 -3.178495
C -2.656229 5.149254 -3.947427
C -3.995610 5.415276 -3.715954
C -4.658903 4.779137 -2.692555
C -3.995366 3.827242 -1.938688
C -4.667163 6.371798 -4.570300
N -0.915308 0.198938 -1.798793
Zn 0.000000 0.000000 0.000000
N -5.167754 7.106249 -5.262657
H 1.641146 0.512381 4.816549
H -1.265318 4.296828 2.497315
H -2.331790 4.566320 0.316482
H 2.470472 4.229745 5.943319
H 2.233508 3.114767 3.940645
H -1.662250 2.622049 4.664907
H -1.426630 3.706954 6.686649
C 0.831592 0.666211 2.862318
C 0.153682 1.886441 2.863903
C -0.611446 2.398822 1.809209
C -1.257534 3.680352 1.800680
C -1.846150 3.827242 0.605591
C 1.543322 0.119131 3.980521
H 1.265318 -4.296828 -2.497315
C 0.268488 2.705325 4.116504
H 2.331790 -4.566320 -0.316482