85
Ni1 H20 C52 Br4 N8
Ni 0.002811 0.153542 -0.056271
H -3.491687 0.166027 -4.122280
H -4.487322 -0.316635 -6.146607
H -3.673923 -2.049071 -7.455680
H -1.949137 -3.364486 -6.701748
H -0.940197 -2.923011 -4.653665
N -0.232391 4.213955 4.949868
C 3.842281 0.099098 1.383846
N -4.023208 3.321995 3.929301
H 4.520150 2.334790 -1.784881
Br 5.793249 -0.668785 0.403458
Br 4.597538 -0.011721 3.569117
C -2.884546 -0.433761 0.275471
C -3.875619 -1.328295 -0.307966
C -3.393988 -1.741454 -1.487386
C -2.125610 -1.087607 -1.702956
C -1.454654 -0.967907 -2.896175
C -0.177866 -0.423464 -2.931695
C 0.556535 -0.100402 -4.135842
C 1.824564 0.229095 -3.740102
C 1.878026 0.115830 -2.303477
C 3.018195 0.171176 -1.529812
C 2.962529 0.132563 -0.156206
C 3.613987 0.225234 2.003753
C 2.220281 0.615225 1.876513
C 0.113809 -0.061789 -5.509433
C 2.828111 0.655125 -4.681887
C -2.100270 -1.316711 -4.176559
C -3.167066 -0.558610 -4.644713
C -3.752718 -0.837910 -5.842001
C -3.279726 -1.870164 -6.609612
C -2.256885 -2.639849 -6.170409
C -1.656976 -2.378568 -4.956659
C -3.633876 -1.534231 -0.897439
C 1.189900 0.064346 -3.937438
Br -5.461472 -1.939925 0.484959
Br -4.217656 -3.037177 -2.552532
N -1.775191 -0.410593 -0.547345
N 0.611488 -0.207231 -1.831573
N 1.813624 0.401567 0.561000
N -0.657258 0.863635 1.589583
N -0.089864 0.028308 -6.557428
N 3.474658 1.009077 -5.475277
H 3.303962 3.140514 3.259892
H 1.637198 1.516195 7.311207
H 0.906781 0.588196 5.313361
H -4.259902 -0.393861 3.618114
H -6.419732 0.001279 4.368470
H -7.835945 1.357881 3.144812
H -7.106086 2.284593 1.163013
H -4.999346 1.832821 0.348489
C 1.434099 1.278081 2.806046
C 0.088827 1.534214 2.544624
C -0.774871 2.356670 3.327284
C -2.058945 2.106973 2.921488
C -1.990656 1.126203 1.871073
C -3.049765 0.413150 1.337258
C -3.255810 2.777552 3.464002
C 1.994228 1.789060 4.096057
C 2.941692 2.822600 4.078943
C 2.852013 2.879233 6.489152
C 1.963521 1.855989 6.487404
H 3.953198 4.096829 5.318493
C 1.530730 1.306397 5.301498
H 3.139438 3.255066 7.313087
C -4.418957 0.667996 1.902225
C -4.848200 0.141572 3.101044
C -6.121915 0.386121 3.553118
C -6.956348 1.180262 2.832639
C -6.524125 1.719556 1.657475
H 4.508173 -1.557399 -2.905151
C -5.276195 1.463423 1.178208
H 6.512656 -1.235624 -4.065825
H 7.523391 0.872645 -4.055685
H 6.528902 2.660426 -2.944583
C -1.416908 2.231822 3.123626
C -0.425900 3.410805 4.294167
C 4.071133 -0.025750 0.765482
C 3.338142 3.372192 5.306938
C 4.331110 0.343647 -2.231686
C 4.920527 -0.701478 -2.908474
C 6.109046 -0.513561 -3.597876
C 6.703350 0.741361 -3.593771
C 6.119144 1.804505 -2.931236
C 4.929135 1.610153 -2.244541