178
Sm2 H96 C72 N8
C 0.481574 -2.309859 5.013406
Sm -0.695126 -1.349997 -1.610945
H -4.686993 -1.763232 1.429517
H -4.880117 -1.934960 3.009834
H -3.881067 -1.424614 -5.985432
H -3.429205 -2.111525 2.357100
C 3.327690 -0.287825 -0.079452
H 3.553003 2.895184 0.473307
C 4.642425 -0.969899 0.296353
C -0.489002 5.952421 2.483948
C 2.915443 -0.469228 -1.562897
C 2.695083 -1.910773 -1.857620
C 0.753930 -5.325977 0.022419
H -3.553003 -2.895184 -0.473307
C 3.603760 -2.897603 -2.268473
C 2.012956 -6.257177 0.175045
C 2.926585 -4.128721 -2.234479
C -2.206080 2.641220 -3.153165
C 1.651465 -3.855408 -1.791596
C -3.288075 3.226546 -4.072995
C 0.523666 -4.810794 -1.426182
C -0.481574 2.309859 -5.013406
C -3.327690 0.287825 0.079452
H -0.049519 -5.826648 0.314156
C -4.642425 0.969899 -0.296353
H 1.207031 0.070142 -3.813602
N -1.491766 2.481586 1.575091
C -0.753930 5.325977 -0.022419
C -2.012956 6.257177 -0.175045
H 3.406921 0.679655 0.109730
H 1.468244 3.911038 -0.529984
H -3.406921 -0.679655 -0.109730
C 0.489002 -5.952421 -2.483948
H 1.459578 6.552258 2.176532
H 0.573185 7.667279 2.910018
H 0.403581 7.415734 1.338592
C 3.288075 -3.226546 4.072995
H 0.117608 1.639879 -5.426257
H -1.459578 -6.552258 -2.176532
H -0.573185 -7.667279 -2.910018
H 1.041141 3.284595 -4.042513
H -0.403581 -7.415734 -1.338592
H 0.739074 3.889270 -5.492088
H 2.769361 4.048904 4.845525
C -0.878966 -0.877988 0.807265
H 4.254937 3.577257 5.194280
C -1.603184 -0.253964 1.809684
H 5.143807 5.086526 3.698759
H 4.686993 1.763232 -1.429517
H 4.123712 5.877441 4.644349
H 4.880117 1.934960 -3.009834
H 3.687943 5.471099 3.159259
H -2.769361 -4.048904 -4.845525
H 3.429205 2.111525 -2.357100
H 4.831836 1.649553 2.170197
H -4.254937 -3.577257 -5.194280
H 5.224276 3.192684 2.229436
H -5.143807 -5.086526 -3.698759
H 6.238182 2.880672 4.278830
H -4.123712 -5.877441 -4.644349
H 6.860885 1.884167 3.190424
H -3.687943 -5.471099 -3.159259
H 5.808602 1.337541 4.267150
H -4.831836 -1.649553 -2.170197
C 3.028099 1.506850 4.105758
H -5.224276 -3.192684 -2.229436
C 3.321500 1.015854 5.335444
H -6.238182 -2.880672 -4.278830
N 1.491766 -2.481586 -1.575091
H -6.860885 -1.884167 -3.190424
H -5.808602 -1.337541 -4.267150
C -3.028099 -1.506850 -4.105758
C -3.321500 -1.015854 -5.335444
H 0.049519 5.826648 -0.314156
C -0.334255 -3.528883 4.675061
C -4.008579 -0.137866 2.500219
H -4.508723 2.759737 2.522997
C -4.274745 -1.618110 2.307046
H -3.276933 4.980103 2.472010
H 2.655467 -0.793334 6.224837
H 0.906201 -1.934960 1.003995
C 0.814591 4.075509 1.443460
C 1.642800 3.765916 0.393419
C 2.789169 3.202359 0.945927
C 2.598520 3.173334 2.319476
C 3.553003 2.750062 3.407215
C -0.814591 -4.075510 -1.443460
H 1.683653 -3.388599 2.768894
C -1.642800 -3.765916 -0.393419
H 2.652991 -2.174411 2.402172
C -2.789169 -3.202359 -0.945927
H -3.734986 0.012093 3.438743
H 3.777077 -2.498517 4.506071
C -2.598520 -3.173334 -2.319476
H -4.855358 0.353130 2.354704
H 3.909541 -3.768335 3.541941
C -3.553003 -2.750062 -3.407215
H 2.865924 -3.790103 4.754139
H 1.155035 -2.566241 5.692883
H -2.655467 0.793334 -6.224837
C 0.878966 0.877988 -0.807265
H -0.906201 1.934960 -1.003995
C 1.603184 0.253964 -1.809684
C 0.581851 6.990043 2.201336
H 0.245120 -4.208538 4.271191
C 3.666897 3.889270 4.460946
H -1.371682 6.399880 2.503964
H -1.683653 3.388599 -2.768894
N -0.952007 -0.406342 3.040697
H -0.329303 5.560591 3.377975
H -2.652991 2.174411 -2.402172
C -0.581851 -6.990043 -2.201336
C 4.946968 2.421119 2.781006
C 4.201704 5.195368 3.946440
H -3.777077 2.498517 -4.506071
C 6.057436 2.104269 3.707270
H 2.607186 -0.648212 0.494634
H -3.909541 3.768335 -3.541941
C -3.666897 -3.889270 -4.460946
H 4.508723 -2.759737 -2.522997
H -2.865924 3.790103 -4.754139
H 3.276933 -4.980103 -2.472010
H -1.155035 2.566241 -5.692883
C -4.201704 -5.195368 -3.946440
H 5.376547 -0.568395 -0.212505
C -4.946968 -2.421119 -2.781006
H 4.807077 -0.853801 1.255199
C -6.057436 -2.104269 -3.707270
H 4.585478 -1.925285 0.088391
H -1.874302 7.079535 0.337986
H -0.245120 4.208538 -4.271191
C 0.334255 3.528883 -4.675061
C 4.008579 0.137866 -2.500219
H 0.857920 -4.547156 0.623859
C 4.274745 1.618110 -2.307046
H -2.607186 0.648212 -0.494634
H 2.806501 -5.790368 -0.163789
N 2.181321 0.631281 3.434991
H 2.142943 -6.479697 1.119125
H -5.376547 0.568394 0.212505
H -4.807077 0.853801 -1.255199
H 3.734986 -0.012094 -3.438743
N 1.358064 3.669168 2.647687
H -4.585478 1.925285 -0.088391
H 4.855358 -0.353130 -2.354704
N -2.181321 -0.631281 -3.434991
N -1.358064 -3.669168 -2.647687
H -0.857920 4.547156 -0.623859
H -2.806501 5.790368 0.163789
H -2.142943 6.479697 -1.119125
H 1.371682 -6.399880 -2.503964
C -2.915443 0.469228 1.562897
H 0.329303 -5.560591 -3.377975
C -2.695083 1.910773 1.857620
C 2.643087 -0.215264 5.470945
C 1.968388 -0.408760 4.302068
C -3.603760 2.897603 2.268473
H -1.207031 -0.070142 3.813602
C 1.214458 -1.644716 3.831308
C -2.926585 4.128721 2.234479
C 0.196839 -1.206931 2.808660
C -1.651465 3.855408 1.791596
C 0.222836 -1.446383 1.447983
C -0.523666 4.810794 1.426182
N 0.952007 0.406342 -3.040697
H 1.874302 -7.079535 -0.337986
H -1.468244 -3.911038 0.529984
C -2.643087 0.215264 -5.470945
C -1.968388 0.408760 -4.302068
H -0.739074 -3.889270 5.492088
C -1.214458 1.644716 -3.831308
C -0.196839 1.206931 -2.808660
H -0.117608 -1.639879 5.426257
C -0.222836 1.446383 -1.447983
Sm 0.695126 1.349997 1.610945
H -1.041141 -3.284595 4.042513
C 2.206080 -2.641220 3.153165
H 3.881067 1.424614 5.985432