163
Sn1 B2 H64 C82 N8 O2 F4
B -6.554874 -2.236904 -7.397551
H -4.208244 -0.879211 2.928862
H -3.529270 1.406738 3.554315
H 0.370272 4.781233 1.958332
H -2.325826 -4.605391 -0.458046
H -3.106372 -3.575458 3.144883
H -4.916297 -4.946310 3.650524
H -6.638054 -5.226222 2.112319
H -6.536271 -4.161599 0.060000
H -4.726171 -2.784766 -0.464552
Sn 0.000000 0.000000 0.000000
H -3.583608 3.634072 1.851890
B 6.554874 2.236904 7.397551
H -4.603110 5.347038 3.031527
H 4.208244 0.879211 -2.928862
H 3.529270 -1.406738 -3.554315
H -1.464829 5.497760 5.548810
H -0.370272 -4.781233 -1.958332
H -0.419749 3.764459 4.356256
H 2.325826 4.605391 0.458046
H -0.609398 -0.094500 -3.656901
H 3.106372 3.575458 -3.144883
H -2.041125 -1.011990 -5.243966
H -3.504095 6.327927 4.833811
H 4.916297 4.946310 -3.650524
H -5.137397 -0.587337 -2.693784
H 6.638054 5.226222 -2.112319
H -3.710543 0.340919 -1.107561
H 6.536271 4.161599 -0.060000
H -6.532884 2.364898 -7.030954
H 3.504095 -6.327927 -4.833811
H 4.726171 2.784766 0.464552
H -4.235304 -5.832698 -5.657904
H 3.583608 -3.634072 -1.851890
H 4.603110 -5.347038 -3.031527
H -7.224524 0.210532 -9.488051
H -8.238420 1.137591 -8.699296
H -8.346612 -0.437811 -8.577892
H 1.464829 -5.497760 -5.548810
H 0.419749 -3.764459 -4.356256
H -6.065128 -6.228642 -7.533501
H 0.609398 0.094500 3.656901
H -2.857248 -4.863771 -3.724856
H -3.514258 -3.575458 -3.078796
H -2.305773 -3.424736 -4.091288
H 2.041125 1.011990 5.243966
H 5.137397 0.587337 2.693784
H -7.050278 -5.019278 -7.808088
H 3.710543 -0.340919 1.107561
H -5.701281 -5.143684 -8.629144
H 6.532884 -2.364898 7.030954
H 4.235304 5.832698 5.657904
H -4.704976 2.864912 -5.295608
H -3.732943 1.674688 -4.913338
H -5.046779 1.929479 -4.064282
H 7.224524 -0.210532 9.488051
H 8.238420 -1.137591 8.699296
C -2.517267 -0.894762 1.600434
H 8.346612 0.437811 8.577892
C -3.470642 -0.406710 2.589201
C -3.100556 0.851698 2.927901
H 2.857248 4.863771 3.724856
H 3.514258 3.575458 3.078796
C -1.918659 1.190224 2.148618
H 2.305773 3.424736 4.091288
C -1.242925 2.435474 2.171531
C -0.069637 2.753665 1.447241
H 7.050278 5.019278 7.808088
C 0.619090 4.024035 1.461108
H 5.701281 5.143684 8.629144
C -1.691761 -3.931927 -0.625091
C -1.676960 -2.616101 -0.042862
H 4.704976 -2.864912 5.295608
H 3.732943 -1.674688 4.913338
C -2.575618 -2.143600 0.940085
H 5.046779 -1.929479 4.064282
H 6.065128 6.228642 7.533501
C -3.727763 -3.038362 1.286394
C 2.517267 0.894762 -1.600434
C -3.795783 -3.689098 2.517031
C 3.470642 0.406710 -2.589201
C -4.878972 -4.507302 2.820519
C 3.100556 -0.851698 -2.927901
C -5.903406 -4.677163 1.902748
C 1.918659 -1.190224 -2.148618
C -5.844327 -4.041978 0.683328
C 1.242925 -2.435474 -2.171531
C -4.758606 -3.217793 0.368635
C 0.069637 -2.753665 -1.447241
C -1.884131 3.530002 2.966376
C -0.619090 -4.024035 -1.461108
C -3.144857 4.013269 2.592443
C 1.691761 3.931927 0.625091
C -3.752957 5.038417 3.290499
C 1.676960 2.616101 0.042862
C -3.105860 5.609007 4.378047
C 2.575618 2.143600 -0.940085
C -1.882517 5.129329 4.792196
C 3.727763 3.038362 -1.286394
C -1.258437 4.086238 4.079973
C 3.795783 3.689098 -2.517031
C -2.017932 0.276323 -2.236263
C 4.878972 4.507302 -2.820519
C -1.527135 -0.171057 -3.465936
C 5.903406 4.677163 -1.902748
C -2.384227 -0.730882 -4.414985
C 5.844327 4.041978 -0.683328
C -3.742759 -0.876819 -4.145110
C 4.758606 3.217793 -0.368635
C -4.226193 -0.476090 -2.897032
C 1.884131 -3.530002 -2.966376
C -3.372298 0.087323 -1.948144
C 3.144857 -4.013269 -2.592443
C -4.666115 -1.348124 -5.221421
C 3.752957 -5.038417 -3.290499
C -5.405468 -0.385178 -5.930358
C 3.105860 -5.609007 -4.378047
C -5.422047 1.043091 -5.861124
C 1.882517 -5.129329 -4.792196
C -6.307107 1.472529 -6.842224
C 1.258437 -4.086238 -4.079973
C -6.806408 0.334938 -7.505556
C 2.017932 -0.276323 2.236263
C -5.418193 -4.483378 -6.733346
C 1.527135 0.171057 3.465936
C -4.507058 -4.940329 -5.773946
C 2.384227 0.730882 4.414985
C -4.069955 -3.857763 -5.022494
C 3.742759 0.876819 4.145110
C -4.740582 -2.712994 -5.548440
C 4.226193 0.476090 2.897032
C -7.734703 0.308621 -8.669172
C 3.372298 -0.087323 1.948144
C -3.100675 -3.937908 -3.877948
C 4.666115 1.348124 5.221421
C -6.119754 -5.288424 -7.766228
C 5.405468 0.385178 5.930358
C -4.659747 1.958188 -4.953763
C 5.422047 -1.043091 5.861124
C 6.307107 -1.472529 6.842224
N 0.602187 1.926369 0.573471
N -1.592125 0.094500 1.386954
N -6.273673 -0.776337 -6.958953
C 6.806408 -0.334938 7.505556
N -5.573630 -3.143628 -6.601199
C 5.418193 4.483378 6.733346
C 4.507058 4.940329 5.773946
C 4.069955 3.857763 5.022494
C 4.740582 2.712994 5.548440
C 7.734703 -0.308621 8.669172
O -1.208995 0.929571 -1.379278
C 3.100675 3.937908 3.877948
F -6.324082 -2.381765 -8.768532
C 6.119754 5.288424 7.766228
F -7.879617 -2.575909 -7.119711
C 4.659747 -1.958188 4.953763
N -0.602187 -1.926369 -0.573471
N 1.592125 -0.094500 -1.386954
N 6.273673 0.776337 6.958953
N 5.573630 3.143628 6.601199
O 1.208995 -0.929571 1.379278
F 6.324082 2.381765 8.768532
F 7.879617 2.575909 7.119711