131
Eu1 Fe2 H44 C72 N12
H 0.198932 4.142888 -6.548925
H 0.948792 2.133542 -7.444196
H 0.886179 0.156605 -6.186526
C 0.174782 -3.852116 2.623566
C 0.977942 -4.269691 1.615601
C 1.333255 -3.089262 0.846719
C -2.386583 -2.805062 0.619807
C -4.787993 -2.050934 3.221946
C -3.886874 -2.044702 2.171564
C -3.304526 -0.950281 1.376036
C 3.028293 -4.314565 -0.478637
C 3.327839 -4.901663 -1.757637
C 3.883284 -6.190536 -1.559229
C 3.940553 -6.414905 -0.144644
C 3.448723 -5.268132 0.508792
C 6.924145 -5.271871 0.062841
C 6.422130 -4.166232 0.741918
N -3.744146 0.289979 1.475021
C 6.174721 -3.137876 -0.195690
C 6.520395 -3.622761 -1.478780
C 6.987064 -4.955262 -1.324223
H -0.817764 -6.215466 -1.420825
H -3.260543 -5.245695 1.899071
H -4.732623 -5.288076 3.706347
H -5.667411 -3.326096 4.538480
C -0.403689 -5.714376 -2.113561
C -0.424069 -4.340741 -2.110496
C -0.998056 -3.333575 -1.192920
C 0.158820 3.355105 -6.021273
C 0.616908 2.150993 -6.552894
C 0.600600 0.984276 -5.816054
Eu -0.295218 -0.198895 -0.012830
Fe -1.125795 6.327242 2.364748
H 3.014912 2.074957 -2.234674
H 2.613256 4.370996 -1.007385
H 1.181848 5.083990 0.891189
H -1.713796 2.577293 4.542244
H 1.123215 -3.724974 -4.950203
H -1.833442 0.186520 5.204080
H 1.232377 -6.079598 -4.936288
H -1.128313 -2.087082 4.077228
H 4.155395 -2.466016 -2.271523
H 4.228463 -0.113884 -3.028435
H 0.820193 5.088976 3.775575
H -0.794303 6.553605 5.029774
H -3.125255 6.107361 4.171212
H -2.960780 4.316151 2.378188
C -3.313691 -3.217651 1.688061
H -0.418095 6.299321 -0.254170
C -3.633646 -4.440461 2.239717
H 1.178887 7.316459 1.386682
C -4.509115 -4.457911 3.300496
H -0.123702 8.777348 2.990220
C -5.075222 -3.282469 3.795776
H -2.578948 8.620290 2.333700
H -2.759378 7.100816 0.317155
H 5.831219 -2.272810 -0.003471
H -5.109401 6.028832 -0.046064
N -1.747182 -3.696304 -0.133514
H -3.320744 5.141329 -1.264655
H -0.696660 4.241361 -4.392063
C 2.516206 1.608769 -1.573104
C 1.771566 2.416496 -0.709577
C 2.016388 3.823786 -0.511674
C 1.227207 4.212692 0.516409
C 0.466014 3.062179 0.940744
C -0.397632 3.040989 2.060636
C -0.786125 1.851835 2.718850
C -1.411386 1.830644 4.038169
C -1.473327 0.526813 4.393879
C -0.892170 -0.258477 3.327320
C -0.709192 -1.634605 3.356459
C 0.004598 -2.442333 2.473551
C 2.287769 -3.051868 -0.212193
C 2.566841 -1.891383 -0.986354
H 0.309771 -7.289943 -3.167235
C 3.595937 -1.762994 -1.961062
C 3.648148 -0.482846 -2.373392
C 2.634895 0.213943 -1.610512
C -0.855891 4.292467 2.744020
C -0.121742 5.103934 3.653616
C -1.024384 5.929112 4.352860
C -2.329365 5.679814 3.877635
C -2.234155 4.676387 2.873936
C 0.152679 -3.596585 -3.147020
C -0.650332 6.886419 0.455063
C 0.758219 -4.226064 -4.229371
C 0.237992 7.452326 1.372451
C 0.811067 -5.618396 -4.221567
C -0.483348 8.266286 2.273232
C 0.246056 -6.342608 -3.163072
C -1.855567 8.181525 1.898380
C -1.960401 7.331417 0.775441
H -5.598574 2.531173 1.930190
C -3.343213 1.283434 0.676256
H -6.216721 4.752423 1.553846
C -4.018110 2.562336 0.627838
C -5.118354 3.068412 1.311103
C -5.495322 4.372243 1.066636
C -4.827642 5.135097 0.114653
C -3.761981 4.620295 -0.604393
C -3.355241 3.328929 -0.333246
C -2.298179 2.456384 -0.875944
C -0.856580 1.946568 -2.640999
C -0.357232 2.275642 -3.972556
C -0.355399 3.424909 -4.736919
C 0.141716 1.079009 -4.497613
H -5.192744 -1.249439 3.534744
C -0.038048 0.070597 -3.441426
C -0.054633 -2.185555 -2.807464
Fe 5.054222 -4.789105 -0.623038
H -0.203268 -4.396833 3.304357
H 1.254825 -5.162180 1.444432
N 0.821374 1.978977 0.178015
N -0.503604 0.582905 2.298485
N 0.680075 -1.999828 1.357676
N 1.963091 -0.653616 -0.794235
N -2.300983 1.269723 -0.211302
N -1.588920 2.822853 -1.937570
H 3.177941 -4.491567 -2.602588
N -0.579777 0.646476 -2.336767
H 4.164881 -6.793839 -2.236620
N 0.279466 -1.200826 -3.658056
H 4.258020 -7.202688 0.278033
N -0.703836 -2.075864 -1.616482
H 3.398548 -5.148468 1.449230
H 7.188755 -6.097049 0.453807
N -2.375963 -1.452617 0.512686
H 6.271443 -4.110140 1.676704
H 6.455714 -3.144108 -2.296098
H 7.279859 -5.532388 -2.019087