179
Fe1 H66 C100 N8 O4
H -2.044497 0.283958 -4.446196
C 3.390743 1.282319 3.088264
C 2.574467 0.226082 3.662330
C 2.718382 -0.863434 2.854437
C -2.718382 -0.863434 -2.854437
C 6.938726 2.526653 -1.781527
C -6.938726 2.526653 1.781527
C 3.624509 -0.458302 1.803752
C -3.624509 -0.458302 -1.803752
C 7.678096 3.607487 -2.378489
C -7.678096 3.607487 2.378489
C 4.021986 -1.313420 0.757466
C -2.802903 2.869568 -4.928494
C -4.021986 -1.313420 -0.757466
C 7.441284 4.707131 -1.650287
C -7.441284 4.707131 1.650287
C 7.624794 0.913359 -3.546155
C -7.624794 0.913359 3.546155
C -1.714408 3.736261 -5.037902
C 6.590362 4.293318 -0.549824
C -6.590362 4.293318 0.549824
C 7.290136 1.509482 -4.735899
C -1.161975 4.018407 -6.280612
C -7.290136 1.509482 4.735899
C 6.178036 5.191842 0.470237
C -6.178036 5.191842 -0.470237
C 7.972397 1.227336 -5.910104
C -1.654253 3.425178 -7.400512
C -7.972397 1.227336 5.910104
C 5.375847 4.841693 1.559464
C -5.375847 4.841693 -1.559464
C 9.004163 0.337493 -5.887331
C -2.708863 2.555591 -7.333743
C -9.004163 0.337493 5.887331
C 5.009970 5.711280 2.628004
C 9.320166 -0.284674 -4.746295
C -3.307364 2.267658 -6.091337
H -5.238786 6.630061 -2.707894
C -9.320166 -0.284674 4.746295
C 4.265651 4.980595 3.520664
C 8.662272 0.004706 -3.548358
H -3.902439 5.306148 -4.334227
C -8.662272 0.004706 3.548358
C 4.130493 3.663916 3.024622
C 3.450136 2.598998 3.600614
H -4.047114 1.671535 -6.041507
Fe -0.000000 -9.637580 -0.000000
H -4.755264 -3.381040 -2.279893
H 5.417727 0.898890 -0.007764
H -5.417727 0.898890 0.007764
H 4.960856 -2.770448 -1.493833
H -4.960856 -2.770448 1.493833
H -8.261748 6.472349 -1.364911
H 6.445686 -1.491389 -3.011585
H -6.445686 -1.491389 3.011585
H -9.046043 8.635464 -1.020829
C 3.507245 -2.735723 0.783557
H -1.347769 4.134159 -4.257697
C -3.507245 -2.735723 -0.783557
C 6.593408 6.632955 0.339700
C -6.593408 6.632955 -0.339700
C 4.068054 -3.653057 1.681448
C -4.068054 -3.653057 -1.681448
H -0.437835 4.628998 -6.347696
H 2.044497 0.283958 4.446196
C 7.736347 7.074259 0.851878
C -7.736347 7.074259 -0.851878
H 2.307198 -1.712764 2.958948
C 3.606615 -4.981311 1.689100
H -2.307198 -1.712764 -2.958948
C -3.606615 -4.981311 -1.689100
H -1.260202 3.617615 -8.243279
C -8.200832 8.367788 -0.677133
C 8.200832 8.367788 0.677133
C 2.657846 -5.358952 0.816368
H -3.038191 2.146118 -8.125301
C -2.657846 -5.358952 -0.816368
C 7.401308 9.250397 -0.006210
C -7.401308 9.250397 0.006210
C 2.079524 -4.476343 -0.059951
C -2.079524 -4.476343 0.059951
H -7.721118 1.649831 6.722435
H 7.721118 1.649831 -6.722435
C 6.240095 8.835137 -0.524102
C -6.240095 8.835137 0.524102
C 2.545151 -3.162558 -0.048740
C -2.545151 -3.162558 0.048740
H -9.495299 0.158077 6.679887
H 9.495299 0.158077 -6.679887
C 5.806067 7.495307 -0.387025
C -5.806067 7.495307 0.387025
C 1.090398 -7.027228 1.372812
C -1.090398 -7.027228 -1.372812
H -10.009279 -0.938673 4.751242
H 10.009279 -0.938673 -4.751242
C 2.802903 2.869568 4.928494
H -4.915169 2.912975 -1.312983
H 4.915169 2.912975 1.312983
C 0.870339 -8.488597 1.446154
H -8.928018 -0.420683 2.742437
C -0.870339 -8.488597 -1.446154
H 8.928018 -0.420683 -2.742437
C 1.714408 3.736261 5.037902
C -0.305342 -9.103530 1.946401
C 0.305342 -9.103530 -1.946401
C 1.161975 4.018407 6.280612
C 1.125044 -10.755889 1.291853
C -1.125044 -10.755889 -1.291853
H 8.231290 3.552505 -3.148475
H -8.231290 3.552505 3.148475
C 1.654253 3.425178 7.400512
C -0.138965 -10.509916 1.858864
C 0.138965 -10.509916 -1.858864
C 2.708863 2.555591 7.333743
H -7.766805 5.582505 1.820428
H 7.766805 5.582505 -1.820428
C 1.754384 -9.514449 1.025067
C -1.754384 -9.514449 -1.025067
C 3.307364 2.267658 6.091337
H 5.238786 6.630061 2.707894
N 5.482070 0.192803 -0.530054
N -5.482070 0.192803 0.530054
H 3.902439 5.306148 4.334227
N 4.017799 0.843908 1.954060
N -4.017799 0.843908 -1.954060
H 6.571326 2.131649 -4.755776
C -3.390743 1.282319 -3.088264
H -6.571326 2.131649 4.755776
O 2.282070 -6.726273 0.829222
O -2.282070 -6.726273 -0.829222
C -2.574467 0.226082 -3.662330
O 0.296205 -6.186579 1.750631
O -0.296205 -6.186579 -1.750631
H 4.047114 1.671535 6.041507
H 4.755264 -3.381040 2.279893
H 3.963355 -5.607819 2.306220
H -3.963355 -5.607819 -2.306220
H 1.385842 -4.749807 -0.648622
H -1.385842 -4.749807 0.648622
H 8.261748 6.472349 1.364911
H 2.166329 -2.540391 -0.659529
H -2.166329 -2.540391 0.659529
H 9.046043 8.635464 1.020829
H -1.107912 -8.626053 2.307214
H 1.107912 -8.626053 -2.307214
H 7.671623 10.154709 -0.112179
H -7.671623 10.154709 0.112179
H 1.511481 -11.658755 1.098171
H -1.511481 -11.658755 -1.098171
H 5.691850 9.454410 -0.994209
H -5.691850 9.454410 0.994209
H -0.810946 -11.197194 2.137640
C -5.009970 5.711280 -2.628004
H 0.810946 -11.197194 -2.137640
H 4.991314 7.200140 -0.782200
H -4.991314 7.200140 0.782200
H 2.661273 -9.379887 0.630114
C -4.265651 4.980595 -3.520664
H -2.661273 -9.379887 -0.630114
N 6.298726 2.962170 -0.626049
N -6.298726 2.962170 0.626049
H 1.347769 4.134159 4.257697
C 4.867578 -0.989314 -0.295745
C -4.867578 -0.989314 0.295745
C -4.130493 3.663916 -3.024622
N 4.834455 3.623403 1.825262
N -4.834455 3.623403 -1.825262
H 0.437835 4.628998 6.347696
C 5.235359 -1.867583 -1.380667
C -3.450136 2.598998 -3.600614
C -5.235359 -1.867583 1.380667
H 1.260202 3.617615 8.243279
C 6.052777 -1.162942 -2.212487
C -6.052777 -1.162942 2.212487
H 3.038191 2.146118 8.125301
C 6.220678 0.150843 -1.682612
C -6.220678 0.150843 1.682612
C 6.912837 1.212867 -2.267287
C -6.912837 1.212867 2.267287