14
H5 C6 N1 O2
H 0.099200 0.243472 -2.016028
C 0.131057 0.160822 0.020169
C -0.253972 -0.213858 -1.260854
C -1.156270 -1.255247 -1.439689
H -1.419050 -1.511462 -2.315735
H -0.121813 -0.252428 2.000095
C -1.288179 -1.550032 0.945316
H -2.289492 -2.635502 -0.458372
H -1.641351 -2.007362 1.700489
C -0.385881 -0.508643 1.124150
C -1.673374 -1.923335 -0.335801
N 1.054421 1.209100 0.211254
O 1.246343 1.647145 1.362977
O 1.642212 1.654032 -0.768589