209
Zn1 H88 C98 N8 O14
H 3.251091 0.515919 -3.618842
C 2.240100 1.677155 -1.304551
C -2.240100 -1.677155 1.304551
H 1.174079 -1.101046 -8.659868
C 2.484400 3.005540 -1.838015
C -2.484400 -3.005540 1.838015
C 1.300971 3.656311 -1.840399
H 2.115747 0.935365 -9.105495
C -1.300971 -3.656311 1.840399
C 0.309214 2.752195 -1.299335
C -0.309214 -2.752195 1.299335
C -1.036502 3.071813 -1.096053
C 1.036502 -3.071813 1.096053
C -2.007422 2.260604 -0.471325
C 2.007422 -2.260604 0.471325
C -3.376646 2.646075 -0.234973
C 3.376646 -2.646075 0.234973
C -3.987061 1.608575 0.381731
C 3.987061 -1.608575 -0.381731
C -2.994904 0.567510 0.536534
C 2.994904 -0.567510 -0.536534
C 3.219969 0.689779 -1.124683
C -3.219969 -0.689779 1.124683
C 4.623922 1.053229 -1.499798
C -4.623922 -1.053229 1.499798
C 5.545821 1.279520 -0.478021
C -5.545821 -1.279520 0.478021
C 6.349912 1.662894 -3.092120
C -6.349912 -1.662894 3.092120
C 5.045335 1.223524 -2.827620
C -5.045335 -1.223524 2.827620
C -1.482225 4.426833 -1.564868
C 1.482225 -4.426833 1.564868
C -1.931420 4.621037 -2.865443
C 1.931420 -4.621037 2.865443
C -2.328123 5.888812 -3.301784
C 2.328123 -5.888812 3.301784
C -2.278702 6.951898 -2.423736
C 2.278702 -6.951898 2.423736
C -1.823229 6.786846 -1.135369
C 1.823229 -6.786846 1.135369
C -1.421183 5.519070 -0.696869
C 1.421183 -5.519070 0.696869
C -1.278264 5.916286 1.753980
C 1.278264 -5.916286 -1.753980
C -0.504894 5.516134 2.967284
C 0.504894 -5.516134 -2.967284
C 0.810769 5.011960 2.905082
C -0.810769 -5.011960 -2.905082
C 1.463926 4.673467 4.064367
C -1.463926 -4.673467 -4.064367
C 0.838819 4.799511 5.297879
C -0.838819 -4.799511 -5.297879
C -0.470166 5.265306 5.384843
C 0.470166 -5.265306 -5.384843
C -1.109966 5.649308 4.210057
C 1.109966 -5.649308 -4.210057
C -1.208807 5.253561 6.700564
C 1.208807 -5.253561 -6.700564
C -2.143796 4.007807 6.831906
C 2.143796 -4.007807 -6.831906
C -3.289826 4.171600 5.830598
C 3.289826 -4.171600 -5.830598
C -5.197204 5.482159 5.294792
C 5.197204 -5.482159 -5.294792
C -5.495065 6.830678 5.298611
C 5.495065 -6.830678 -5.298611
C -2.679412 3.917626 8.252931
C 2.679412 -3.917626 -8.252931
C -4.349035 2.896275 9.594405
C 4.349035 -2.896275 -9.594405
C -5.434958 1.910577 9.331485
C 5.434958 -1.910577 -9.331485
C -1.330356 2.712348 6.537247
C 1.330356 -2.712348 -6.537247
C -1.972827 1.377880 6.829812
C 1.972827 -1.377880 -6.829812
C -1.732401 0.710542 8.027754
C 1.732401 -0.710542 -8.027754
C -2.298737 -0.510676 8.298848
C 2.298737 0.510676 -8.298848
C -3.141563 -1.112581 7.381029
C 3.141563 1.112581 -7.381029
C -6.844120 -1.701063 0.741151
C -3.373975 -0.484250 6.149945
O -2.106931 4.337491 9.227107
C 3.373975 0.484250 -6.149945
C -7.230137 -1.904285 2.053906
C -2.792946 0.741581 5.889048
C 2.792946 -0.741581 -5.889048
C -4.314307 -1.163124 5.206252
C 4.314307 1.163124 -5.206252
C -0.420745 1.131036 3.089163
C 0.420745 -1.131036 -3.089163
C 0.057435 -0.019504 4.003152
C -0.057435 0.019504 -4.003152
C 1.493311 -0.236777 3.555291
C -1.493311 0.236777 -3.555291
C 1.784493 0.933897 2.638067
C -1.784493 -0.933897 -2.638067
N 0.905337 1.552999 -0.988548
N -0.905337 -1.552999 0.988548
N -1.801991 0.999540 0.009682
N 1.801991 -0.999540 -0.009682
N -0.886770 5.308509 0.597829
N 0.886770 -5.308509 -0.597829
N -4.157095 -0.894678 3.876969
N 4.157095 0.894678 -3.876969
O -2.201231 6.722671 1.803408
O 2.201231 -6.722671 -1.803408
H 7.445185 1.843465 -0.045312
O -5.183847 -1.912883 5.638930
O 5.183847 1.912883 -5.638930
H 8.088991 2.206286 -2.239638
O -3.400822 3.542012 4.811505
O 3.400822 -3.542012 -4.811505
O -4.091112 5.171559 6.188343
O 4.091112 -5.171559 -6.188343
O -3.820365 3.238543 8.282194
O 3.820365 -3.238543 -8.282194
O 0.527067 1.208424 2.010422
O -0.527067 -1.208424 -2.010422
O 2.106931 -4.337491 -9.227107
Zn -0.000000 -0.000000 -0.000000
H 3.301847 3.345082 -2.122152
H -3.301847 -3.345082 2.122152
H 1.151372 4.525822 -2.136200
H -1.151372 -4.525822 2.136200
H -3.768006 3.458332 -0.463248
H 3.768006 -3.458332 0.463248
H -4.875300 1.570825 0.653891
H 4.875300 -1.570825 -0.653891
H 5.284024 1.145088 0.403864
H -5.284024 -1.145088 -0.403864
H -4.701659 3.682736 10.040144
H -3.658479 2.504093 10.152643
H 6.625066 1.793132 -3.970928
H -6.625066 -1.793132 3.970928
H -1.968820 3.900848 -3.451834
H 1.968820 -3.900848 3.451834
H -2.621977 6.014856 -4.174538
H 2.621977 -6.014856 4.174538
H -2.557863 7.793307 -2.707281
H 2.557863 -7.793307 2.707281
H -1.783158 7.514375 -0.557961
H 1.783158 -7.514375 0.557961
H 1.234186 4.909615 2.082731
H -1.174079 1.101046 8.659868
H -1.234186 -4.909615 -2.082731
H 2.337473 4.355947 4.021975
H -2.115747 -0.935365 9.105495
H -2.337473 -4.355947 -4.021975
H 1.298299 4.569864 6.073489
H -1.298299 -4.569864 -6.073489
H -1.967484 6.006467 4.258930
H 1.967484 -6.006467 -4.258930
H -1.740415 6.060995 6.775923
H 1.740415 -6.060995 -6.775923
H -0.567672 5.249367 7.427311
H 0.567672 -5.249367 -7.427311
H -4.966128 5.207422 4.393133
H 4.966128 -5.207422 -4.393133
H -5.979923 4.980921 5.568973
H 5.979923 -4.980921 -5.568973
H -6.232370 6.998457 4.707927
H 6.232370 -6.998457 -4.707927
H -4.729709 7.329819 5.004638
H 4.729709 -7.329819 -5.004638
H -5.730147 7.103318 6.188200
H 5.730147 -7.103318 -6.188200
H -5.831661 1.642131 10.163087
H 5.831661 -1.642131 -10.163087
H -5.067641 1.140893 8.889750
H 5.067641 -1.140893 -8.889750
H -6.102807 2.313245 8.771977
H 6.102807 -2.313245 -8.771977
H -1.088594 2.724302 5.598108
H 1.088594 -2.724302 -5.598108
H -0.504894 2.759955 7.045138
C 6.844120 1.701063 -0.741151
H 0.504894 -2.759955 -7.045138
C 7.230137 1.904285 -2.053906
H -3.550287 -1.925257 7.580379
H 3.550287 1.925257 -7.580379
H -2.949223 1.153476 5.071527
H 2.949223 -1.153477 -5.071527
H -1.308985 0.945851 2.746703
H 1.308985 -0.945851 -2.746703
H -7.445185 -1.843465 0.045312
H -0.443452 1.967202 3.579651
H 0.443452 -1.967202 -3.579651
H -8.088991 -2.206286 2.239638
H 0.017364 0.234890 4.936749
H -0.017364 -0.234890 -4.936749
H -0.475509 -0.817920 3.868582
H 0.475509 0.817920 -3.868582
H 2.097047 -0.236987 4.314910
H -2.097047 0.236987 -4.314910
H 1.584139 -1.077976 3.081119
H -1.584139 1.077976 -3.081119
H 2.094376 1.700854 3.142647
H -2.094376 -1.700854 -3.142647
H 2.456350 0.698378 1.978858
H 4.701659 -3.682736 -10.040144
H -2.456350 -0.698378 -1.978858
H 3.658479 -2.504093 -10.152643
H -0.424752 4.492267 0.692926
H 0.424752 -4.492267 -0.692926
H -3.251091 -0.515919 3.618842