121
Fe2 H46 Ru1 C66 N6
H -7.122369 -2.496724 1.881856
H -5.278237 -1.363316 0.973574
H -2.636617 -3.515178 -2.642825
H -3.808336 -3.432491 -0.506940
H -0.058036 -4.440861 -3.252194
C -0.641393 0.865181 2.892038
H -0.348214 -5.794094 -5.131305
C -1.571964 0.605022 3.970985
C 1.304800 -1.314914 0.726015
H -1.034635 -4.842193 -7.131873
C 3.236985 -2.549159 1.816163
H -1.278784 -2.579410 -7.308883
C 3.330043 -3.864074 2.370646
H -1.033634 -1.203994 -5.452968
C 4.639846 -3.991128 2.854688
C 5.350282 -2.805285 2.603766
C 4.470742 -1.889685 1.962593
C 2.134309 -1.427852 4.654258
C 2.348440 -2.692348 5.275515
H -3.518158 -0.195624 -4.418709
C 3.646236 -2.712515 5.806356
C 4.261614 -1.500455 5.502499
C 3.335046 -0.697792 4.794668
H 7.122369 2.496724 -1.881856
H 5.278237 1.363316 -0.973574
H 2.636617 3.515178 2.642825
N 2.123302 -1.978422 1.223899
H 3.808336 3.432491 0.506940
H 0.058036 4.440861 3.252194
H 0.348214 5.794094 5.131305
H 1.034635 4.842193 7.131873
C -5.140153 -2.036907 1.605385
H 1.278784 2.579410 7.308883
C -6.241829 -2.692348 2.159685
H 1.033634 1.203994 5.452968
C -2.346439 -1.980439 0.066719
C -3.049871 -2.940407 -0.748210
C -2.412480 -2.984775 -1.940820
H 3.518158 0.195624 4.418709
C -1.301798 -2.065142 -1.878790
C -0.384236 -1.815066 -2.920367
H 1.587974 -1.016437 -4.803121
C -0.519319 -2.674197 -4.151332
C -0.893548 -2.131694 -5.374376
Ru 0.000000 0.000000 0.000000
C -1.056648 -2.952507 -6.483023
N -0.932572 0.048402 1.843773
C -0.885543 -4.299690 -6.388971
C -0.494303 -4.860343 -5.190189
C -0.312191 -4.057681 -4.058653
C 5.140153 2.036907 -1.605385
C 6.241829 2.692348 -2.159685
Fe -3.696868 2.420290 -3.773052
C 2.346439 1.980439 -0.066719
C 3.049871 2.940407 0.748210
C 2.412480 2.984775 1.940820
C 0.641393 -0.865181 -2.892038
C 1.301798 2.065142 1.878790
C 0.384236 1.815066 2.920367
C 1.571964 -0.605022 -3.970985
N -1.286789 -1.462136 -0.643659
C 0.519319 2.674197 4.151332
C 0.893548 2.131694 5.374376
C 1.056648 2.952507 6.483023
H -2.801718 -3.569630 3.242211
C 0.885543 4.299690 6.388971
H -4.635843 -4.632452 4.194333
C 0.494303 4.860343 5.190189
H -6.775156 -4.102049 3.503615
C 0.312191 4.057681 4.058653
H -4.685874 0.984169 -1.693951
H -6.287857 2.625795 -2.867836
H -3.102903 -0.734093 4.026268
H -4.999066 4.781691 -3.303952
H -2.635617 4.539682 -2.386113
H -5.175174 1.244329 -5.713763
H -4.044481 3.472826 -6.265307
H -1.722056 3.434508 -5.323110
H -1.320810 1.153575 -4.192443
N 1.286789 1.462137 0.643659
H 2.801718 3.569630 -3.242211
C -2.401473 -0.356963 3.545321
H 4.635843 4.632452 -4.194333
C -2.016237 -0.726026 2.202388
H 6.775156 4.102049 -3.503615
C -2.672639 -1.659777 1.392604
N 0.932572 -0.048402 -1.843773
C -3.853364 -2.361603 1.989456
Fe 3.696868 -2.420290 3.773052
C -6.042706 -3.662400 3.121786
C -4.764923 -3.977011 3.524348
H 3.102903 0.734093 -4.026268
C -3.665248 -3.347788 2.959803
C -1.304800 1.314914 -0.726015
C -3.236985 2.549159 -1.816163
C -3.330043 3.864074 -2.370646
C -4.639846 3.991128 -2.854688
C -5.350282 2.805285 -2.603766
C -4.470742 1.889685 -1.962593
C -2.134309 1.427852 -4.654258
C -2.348440 2.692348 -5.275515
C -3.646236 2.712515 -5.806356
H 4.685874 -0.984169 1.693951
C -4.261614 1.500455 -5.502499
H 6.287857 -2.625795 2.867836
C -3.335046 0.697792 -4.794668
H 4.999066 -4.781691 3.303952
H 2.635617 -4.539682 2.386113
C 2.401473 0.356963 -3.545321
N -2.123302 1.978422 -1.223899
H 5.175174 -1.244329 5.713763
C 2.016237 0.726026 -2.202388
H 4.044481 -3.472826 6.265307
C 2.672639 1.659777 -1.392604
H 1.722056 -3.434508 5.323110
C 3.853364 2.361603 -1.989456
H 1.320810 -1.153575 4.192443
C 6.042706 3.662400 -3.121786
C 4.764923 3.977011 -3.524348
C 3.665248 3.347788 -2.959803
H -1.587974 1.016437 4.803121