312
Cd6 H112 C156 N20 O18
H 6.993718 6.670206 -0.478674
H 8.045808 7.164120 1.555624
H 6.804792 8.093562 3.290714
H 4.577549 8.600100 2.922910
C 3.698784 -0.904194 5.499558
C 4.797673 -0.899460 4.642257
H 5.289920 13.962144 0.506724
C 6.052556 -1.295538 5.110901
H 4.891269 12.849654 2.550364
C 6.194683 -1.666368 6.447315
H 3.560123 10.963944 2.562992
C 5.104461 -1.710552 7.290092
C 3.854778 -1.334988 6.816797
C 7.225975 -1.352346 4.158874
C 7.674890 -1.374438 -2.396832
C 0.799034 2.726784 5.084974
C 8.207002 -1.162986 -1.005919
C 2.150980 3.061320 5.489325
C 2.863351 1.915692 5.481774
C 1.984587 0.833184 5.080420
C 0.339720 -2.709426 0.024981
C 1.041691 -2.062446 0.995991
C 1.698598 -0.886836 0.679180
C 11.907519 -0.919974 1.341517
C 13.252532 -1.063572 1.547675
C 13.670248 -1.589046 2.747826
C 12.727353 -1.993014 3.677420
C 11.418739 -1.821012 3.403877
C 10.221054 -3.984450 0.646646
C 10.850229 -5.212134 0.739639
C 10.449845 -6.072144 1.715937
C 9.427219 -5.729718 2.562086
C 8.820577 -4.478364 2.386059
C 0.015599 5.074848 5.221199
C 0.447182 5.868582 4.158951
C 0.738370 7.220928 4.339557
C 0.563311 7.798476 5.588271
C 0.116129 7.029990 6.658670
C 1.303414 8.013084 3.183067
N 0.138661 -1.506990 4.402642
C 7.503297 1.642698 1.981942
C 7.303972 2.991888 2.211524
N 10.987156 -1.282914 2.252792
C 8.350863 3.744594 2.683410
N 9.201895 -3.607308 1.474216
C 9.572814 3.133908 2.878742
C 9.706275 1.792608 2.613284
O 6.929587 -1.481742 2.932987
O 8.385528 -1.282914 4.592560
O 7.392368 -0.809514 -0.109036
O 9.413353 -1.399686 -0.758906
C 5.161658 7.429224 0.088470
C 6.515337 7.082064 0.230770
C 7.123712 7.359792 1.433511
C 6.404408 7.913670 2.447477
C 5.078462 8.208756 2.217491
C 3.398929 11.543070 -0.548817
C 4.147699 12.688698 -0.609244
C 4.740475 13.188924 0.540706
C 4.513418 12.527742 1.743074
C 3.731716 11.399472 1.736229
N 0.753970 1.360236 4.826482
N 8.674983 1.043058 2.147756
Cd -2.275601 -8.820862 -0.584850
N 4.452754 7.975212 1.055117
H -2.473367 -3.924486 -5.717472
N 3.197871 10.883466 0.619265
H -3.783714 -1.832058 -5.700235
O 1.955121 9.060876 3.406031
O 1.109289 7.549152 2.015052
H -0.544245 -5.481972 -3.299229
H -0.750503 -8.720028 -5.713910
H -0.194125 -2.608434 -1.908017
H -6.764927 -1.120380 -1.693535
H -6.458139 -3.391122 -2.043434
H -8.236467 -4.669302 -2.872806
H -10.314650 -3.637290 -3.195003
H -10.546908 -1.377594 -2.762809
Cd -8.754020 1.256404 -1.664303
H -2.731623 3.343782 -4.809313
H -0.667306 4.675614 -4.415705
H -4.737009 -7.261956 0.746602
H -6.993718 -6.670206 0.478674
H -8.045808 -7.164120 -1.555624
H -6.804792 -8.093562 -3.290714
H -4.577549 -8.600100 -2.922910
H -4.693677 0.626466 -3.737013
H -7.054382 1.892022 -6.784857
H -5.208456 1.996170 -8.189533
H -5.289920 -13.962144 -0.506724
H -3.102541 1.372860 -7.394941
H -4.891269 -12.849654 -2.550364
H -3.560123 -10.963944 -2.562992
H -1.079823 2.414340 -1.879868
H -2.192578 0.415014 -1.340020
C -0.799034 -2.726784 -5.084974
C -2.150980 -3.061320 -5.489325
C -2.863351 -1.915692 -5.481774
C -1.984587 -0.833184 -5.080420
H -11.611131 0.549144 -0.521325
H -13.879973 0.807936 -0.880935
H -14.597544 1.672680 -2.937837
H -12.999475 2.387514 -4.497071
H -10.779165 2.090850 -4.051484
H -10.508776 3.378498 0.024761
H -11.547000 5.448834 -0.139531
H -10.879694 6.913218 -1.812159
H -9.137764 6.321468 -3.245684
H -8.096073 4.246398 -2.954872
H -0.051998 9.488514 -0.876310
C -0.015599 -5.074848 -5.221199
C -0.447182 -5.868582 -4.158951
C -0.738370 -7.220928 -4.339557
C -0.563311 -7.798476 -5.588271
C -2.322573 0.514428 -5.025309
C -0.116129 -7.029990 -6.658670
C -1.476740 1.612716 -4.694709
C -1.854592 2.998200 -4.680741
C -1.303414 -8.013084 -3.183067
Cd 0.896617 -0.344635 -3.789788
C -0.727971 3.728814 -4.456233
C -7.503297 -1.642698 -1.981942
C -7.303972 -2.991888 -2.211524
C -8.350863 -3.744594 -2.683410
H 4.707543 -3.867678 -4.227757
C -9.572814 -3.133908 -2.878742
H 2.643227 -5.177418 -4.685208
C -9.706275 -1.792608 -2.613284
C -3.698784 0.904194 -5.499558
C -4.797673 0.899460 -4.642257
C -6.052556 1.295538 -5.110901
C -6.194683 1.666368 -6.447315
C -5.104461 1.710552 -7.290092
C -3.854778 1.334988 -6.816797
H 5.828965 -0.640668 -1.975924
C -7.225975 1.352346 -4.158874
H 9.376955 -2.120832 -3.262666
C -5.161658 -7.429224 -0.088470
H 8.430593 -2.610012 -5.318032
C -6.515337 -7.082064 -0.230770
H 6.172151 -2.144502 -5.718867
C -7.123712 -7.359792 -1.433511
C -6.404408 -7.913670 -2.447477
C -5.078462 -8.208756 -2.217491
H 0.012133 -7.432380 -7.508577
C -3.398929 -11.543070 0.548817
H 0.433316 -5.144280 -7.223713
C -4.147699 -12.688698 0.609244
C -4.740475 -13.188924 -0.540706
C -4.513418 -12.527742 -1.743074
C -7.674890 1.374438 2.396832
C -3.731716 -11.399472 -1.736229
C -8.207002 1.162986 1.005919
C -0.339720 2.709426 -0.024981
N -0.753970 -1.360236 -4.826482
C -1.041691 2.062446 -0.995991
C -1.698598 0.886836 -0.679180
H 4.529017 3.473178 -3.926820
N -8.674983 -1.043058 -2.147756
H 5.854964 1.391796 -3.841933
N -4.452754 -7.975212 -1.055117
N -3.197871 -10.883466 -0.619265
C -11.907519 0.919974 -1.341517
C -13.252532 1.063572 -1.547675
C -13.670248 1.589046 -2.747826
C -12.727353 1.993014 -3.677420
H 1.724597 5.019618 -2.260558
C -11.418739 1.821012 -3.403877
C -10.221054 3.984450 -0.646646
H 3.007212 8.180352 -4.450745
H 3.069609 6.828006 -6.363825
C -10.850229 5.212134 -0.739639
H 0.313721 -9.505872 -0.317409
H 2.473367 4.560420 -6.189311
C -10.449845 6.072144 -1.715937
C -9.427219 5.729718 -2.562086
O -1.955121 -9.060876 -3.406031
C -8.820577 4.478364 -2.386059
O -1.109289 -7.549152 -2.015052
H 0.116129 3.520518 -0.213195
H -4.529017 -3.473178 3.926820
H 2.081649 0.389766 -0.839758
H -5.854964 -1.391796 3.841933
H -1.724597 -5.019618 2.260558
H -3.007212 -8.180352 4.450745
H -3.069609 -6.828006 6.363825
H -2.473367 -4.560420 6.189311
N -0.138661 1.506990 -4.402642
C 4.331425 -1.033590 -4.095391
C 3.463060 -2.109786 -4.351954
N -10.987156 1.282914 -2.252792
C 3.835712 -3.515784 -4.366784
N -9.201895 3.607308 -1.474216
C 2.710824 -4.232196 -4.617993
C 1.637934 -3.285396 -4.761914
C 0.282522 -3.612042 -5.004620
H -0.116129 -3.520518 0.213195
H 3.012412 11.200644 -1.347386
H 4.258628 13.140006 -1.435907
O -6.929587 1.481742 -2.932987
H -2.081649 -0.389766 0.839758
O -8.385528 1.282914 -4.592560
O -7.392368 0.809514 0.109036
O -9.413353 1.399686 0.758906
Cd -0.896617 0.344635 3.789788
C 5.764834 -1.353924 -3.881252
C 6.347210 -1.060416 -2.649450
C 8.458325 -1.936206 -3.417867
C 7.898481 -2.220246 -4.634037
C 6.553469 -1.937784 -4.875018
H -4.707543 3.867678 4.227757
H -2.643227 5.177418 4.685208
H -3.012412 -11.200644 1.347386
H -4.258628 -13.140006 1.435907
C 0.145594 -5.669754 -6.485561
C 0.367452 2.777280 -4.286521
C 0.305054 -2.158704 -1.237319
C 1.715931 3.107082 -4.146824
H -5.828965 0.640668 1.975924
C 2.787087 2.210778 -4.042947
H -9.376955 2.120832 3.262666
C 4.185831 2.586342 -3.953537
H -8.430593 2.610012 5.318032
C 1.622334 -0.411858 -0.621358
C 4.908602 1.454916 -3.912352
H -6.172151 2.144502 5.718867
C 3.970906 0.337692 -3.997004
H -0.012133 7.432380 7.508577
H -0.433316 5.144280 7.223713
C 2.060850 4.568310 -4.213554
C 2.010585 5.382558 -3.090990
C 2.374571 6.727014 -3.167037
C 2.766288 7.263534 -4.392891
C 2.804420 6.465066 -5.525882
C -0.367452 -2.777280 4.286521
C 2.447368 5.112720 -5.417344
C -1.715931 -3.107082 4.146824
C 2.365904 7.587024 -1.916274
C -2.787087 -2.210778 4.042947
C -4.185831 -2.586342 3.953537
C -4.908602 -1.454916 3.912352
C -3.970906 -0.337692 3.997004
H -0.313721 9.505872 0.317409
C -2.060850 -4.568310 4.213554
C -2.010585 -5.382558 3.090990
N 2.118048 -2.015106 -4.589453
C -2.374571 -6.727014 3.167037
N 0.932496 -1.027278 -1.573235
C -2.766288 -7.263534 4.392891
C -2.804420 -6.465066 5.525882
C -2.447368 -5.112720 5.417344
C -2.365904 -7.587024 1.916274
Cd 8.754020 -1.256404 1.664303
H 2.731623 -3.343782 4.809313
H 0.667306 -4.675614 4.415705
C -4.331425 1.033590 4.095391
C -3.463060 2.109786 4.351954
C -3.835712 3.515784 4.366784
C -2.710824 4.232196 4.617993
C -1.637934 3.285396 4.761914
H 4.693677 -0.626466 3.737013
C -0.282522 3.612042 5.004620
H 7.054382 -1.892022 6.784857
H 5.208456 -1.996170 8.189533
H 3.102541 -1.372860 7.394941
N 2.705624 0.831606 -4.048037
C -5.764834 1.353924 3.881252
C -6.347210 1.060416 2.649450
H 1.079823 -2.414340 1.879868
C -8.458325 1.936206 3.417867
H 2.192578 -0.415014 1.340020
C -7.898481 2.220246 4.634037
C -6.553469 1.937784 4.875018
O 2.762822 8.762634 -1.975834
O 1.986320 7.036302 -0.837861
H 11.611131 -0.549144 0.521325
H 13.879973 -0.807936 0.880935
O 0.289455 9.777288 -0.176334
C -0.145594 5.669754 6.485561
H 14.597544 -1.672680 2.937837
H 12.999475 -2.387514 4.497071
C -0.305054 2.158704 1.237319
H 10.779165 -2.090850 4.051484
H 10.508776 -3.378498 -0.024761
Cd 2.275601 8.820862 0.584850
H 2.473367 3.924486 5.717472
H 11.547000 -5.448834 0.139531
N -2.705624 -0.831606 4.048037
H 3.783714 1.832058 5.700235
H 10.879694 -6.913218 1.812159
C -1.622334 0.411858 0.621358
H 9.137764 -6.321468 3.245684
H 8.096073 -4.246398 2.954872
O -2.762822 -8.762634 1.975834
O -1.986320 -7.036302 0.837861
H 0.051998 -9.488514 0.876310
O -0.289455 -9.777288 0.176334
H 0.544245 5.481972 3.299229
H 0.750503 8.720028 5.713910
H 0.194125 2.608434 1.908017
H 6.764927 1.120380 1.693535
H 6.458139 3.391122 2.043434
H 8.236467 4.669302 2.872806
H 10.314650 3.637290 3.195003
H 10.546908 1.377594 2.762809
C 2.322573 -0.514428 5.025309
C 1.476740 -1.612716 4.694709
C 1.854592 -2.998200 4.680741
C 0.727971 -3.728814 4.456233
N -2.118048 2.015106 4.589453
N -0.932496 1.027278 1.573235
H 4.737009 7.261956 -0.746602