76
H24 C48 N4
C 0.000000 2.858531 -1.107758
H -1.987178 -5.301519 -5.299499
C -0.000000 -3.498601 -3.503995
C -0.000000 -3.498601 3.503995
C 0.000000 2.858531 1.107758
H 1.987178 5.301519 -5.299499
C 0.000000 4.232502 -0.682727
C 0.000000 -0.673581 -4.263696
C 0.000000 -0.673581 4.263696
C 0.000000 4.232502 0.682727
H -1.987178 -5.301519 5.299499
H 1.987178 5.301519 5.299499
C 0.000000 1.089124 2.883182
N 0.000000 0.000000 -2.049854
H -1.977949 -3.692967 -3.667983
C 0.000000 -1.089124 -2.883182
C 0.000000 -1.089124 2.883182
N 0.000000 0.000000 2.049854
N 0.000000 2.071011 0.000000
H 1.977949 3.692967 -3.667983
H -1.977949 -3.692967 3.667983
C 0.000000 -2.446339 -2.436398
C 0.000000 -2.446339 2.436398
H 1.977949 3.692967 3.667983
H 0.000000 1.226521 -5.010010
C 0.000000 -2.858531 -1.107758
C 0.000000 -2.858531 1.107758
H 1.987178 -5.301519 5.299499
H 0.000000 1.226521 5.010010
C -1.177824 4.986511 4.968176
C 1.168594 -4.011327 -3.997633
H 0.000000 4.979809 -1.233259
C -0.000000 -4.232502 -0.682727
C -0.000000 -4.232502 0.682727
H 1.987178 -5.301519 -5.299499
C -1.177824 4.986511 -4.968176
H 0.000000 4.979809 1.233259
C 0.000000 6.548147 -6.502638
H 1.977949 -3.692967 3.667983
C -1.168594 4.011327 3.997633
C 0.000000 6.548147 6.502638
N 0.000000 -2.071011 0.000000
C 0.000000 5.492535 -5.446754
C -1.168594 4.011327 -3.997633
H 1.977949 -3.692967 -3.667983
C 0.000000 5.492535 5.446754
C 1.177824 4.986511 -4.968176
C -1.177824 -4.986511 -4.968176
H 0.000000 -1.226521 -5.010010
H 0.000000 -1.226521 5.010010
C -1.177824 -4.986511 4.968176
H -0.000000 -4.979809 -1.233259
H -0.000000 -4.979809 1.233259
C 1.177824 4.986511 4.968176
C 1.168594 4.011327 -3.997633
C -1.168594 -4.011327 -3.997633
C -0.000000 -6.548147 -6.502638
C -0.000000 -6.548147 6.502638
C -1.168594 -4.011327 3.997633
C -0.000000 -5.492535 -5.446754
C -0.000000 -5.492535 5.446754
C 1.168594 4.011327 3.997633
C 0.000000 3.498601 -3.503995
C 1.177824 -4.986511 4.968176
C 0.000000 3.498601 3.503995
H -1.987178 5.301519 5.299499
C 0.000000 0.673581 -4.263696
H -1.987178 5.301519 -5.299499
C 1.177824 -4.986511 -4.968176
C 0.000000 0.673581 4.263696
C 0.000000 1.089124 -2.883182
C 1.168594 -4.011327 3.997633
H -1.977949 3.692967 3.667983
C 0.000000 2.446340 -2.436398
H -1.977949 3.692967 -3.667983
C 0.000000 2.446340 2.436398