144
Zn1 H62 C62 N8 O11
Zn 0.000000 -0.962282 0.000000
N -1.652499 -1.246711 1.202104
N 1.652499 -1.246711 -1.202104
H -3.912268 -0.969410 -3.290588
H 3.912268 -0.969410 3.290588
H -1.973065 -1.424913 -4.717039
H 1.973065 -1.424913 4.717039
H 3.298225 -1.467508 -3.930279
H -3.298225 -1.467508 3.930279
H 4.731745 -0.985057 -1.994814
H 6.828973 1.740136 1.794386
H -4.731745 -0.985057 1.994814
H -5.515101 -2.500212 -0.539985
H 5.515101 -2.500212 0.539985
H -7.648450 -2.140330 -1.334347
C 5.761170 -1.650056 0.826012
H -8.291841 -0.026241 -2.004624
C 7.045694 -1.432736 1.286313
C 7.434212 -0.168803 1.673446
C 6.551976 0.881287 1.571039
O 0.000000 1.102084 0.000000
O 1.663335 -4.433491 -7.056367
O -1.663335 -4.433491 7.056367
O 0.585373 0.091981 -8.031924
O -0.585373 0.091981 8.031924
C -3.848832 2.289521 -2.256029
C 3.848832 2.289521 2.256029
C -2.977432 4.215845 -0.927812
C 2.977432 4.215845 0.927812
C -1.885925 3.929852 0.077931
C 1.885925 3.929852 -0.077931
C -2.318916 2.703298 2.144320
C 2.318916 2.703298 -2.144320
C -1.127401 2.255619 2.911126
C 1.127401 2.255619 -2.911126
C 1.041616 2.855422 3.586851
C -1.041616 2.855422 -3.586851
C 2.226810 3.757734 3.285863
C -2.226810 3.757734 -3.285863
H 1.200996 -3.687649 -4.730289
H -1.200996 -3.687649 4.730289
H 1.331932 -2.226389 -8.464064
H -1.331932 -2.226389 8.464064
H 0.295734 0.171085 -5.413719
H -0.295734 0.171085 5.413719
H 2.176241 -5.602673 -8.567474
H -2.176241 -5.602673 8.567474
H 1.176164 -4.463916 -8.972556
H -1.176164 -4.463916 8.972556
H 2.686439 -4.128374 -8.719112
H -2.686439 -4.128374 8.719112
C -0.132967 1.251600 -7.647667
C 0.132967 1.251600 7.647667
H -1.015880 1.002986 -7.364380
H 1.015880 1.002986 7.364380
N -4.346387 1.772299 -1.074834
N 4.346387 1.772299 1.074834
H 0.650163 1.668855 -0.182021
H -0.650163 1.668855 0.182021
C -2.563405 -1.018090 -1.645482
C 2.563405 -1.018090 1.645482
C -3.033419 -1.078070 -3.007783
C 3.033419 -1.078070 3.007783
H -4.113186 2.105233 -0.315967
H 4.113186 2.105233 0.315967
C -1.965616 -1.320599 -3.794282
C 1.965616 -1.320599 3.794282
N 2.973820 3.341349 2.097468
C -0.819025 -1.385795 -2.937647
C 0.819025 -1.385795 2.937647
C 0.505457 -1.529227 -3.381007
C -0.505457 -1.529227 3.381007
C 1.653853 -1.421436 -2.569476
C -1.653853 -1.421436 2.569476
H 7.648450 -2.140330 1.334347
C 3.017164 -1.357109 -3.050283
C -3.017164 -1.357109 3.050283
H 8.291841 -0.026241 2.004624
C 3.809100 -1.105018 -1.981359
C -3.809100 -1.105018 1.981359
C -2.958469 -1.058077 0.817761
C 2.958469 -1.058077 -0.817761
O -4.149532 1.845318 -3.356933
O 4.149532 1.845318 3.356933
C -3.377012 -0.885090 -0.502046
O 2.111225 2.660703 -0.727918
C 3.377012 -0.885090 0.502046
H -6.828973 1.740136 -1.794386
O -2.111225 2.660703 0.727918
C -4.824303 -0.614744 -0.784464
C 4.824303 -0.614744 0.784464
H -2.889615 5.133805 -1.226744
H 2.889615 5.133805 1.226744
C -5.761170 -1.650056 -0.826012
H -3.835513 4.135002 -0.484187
H 3.835513 4.135002 0.484187
O -0.046053 3.164016 2.730084
C -7.045694 -1.432736 -1.286313
O 0.046053 3.164016 -2.730084
H -1.864705 4.635707 0.743626
H 1.864705 4.635707 -0.743626
C -7.434212 -0.168803 -1.673446
H 1.027168 3.915943 0.371480
H -1.027168 3.915943 -0.371480
C -6.551976 0.881287 -1.571039
H -2.541958 3.610826 2.405931
H 2.541958 3.610826 -2.405931
C -5.258422 0.668313 -1.138116
C 5.258422 0.668313 1.138116
H -3.072474 2.136527 2.369477
H 3.072474 2.136527 -2.369477
H -0.862369 1.372430 2.613197
H 0.862369 1.372430 -2.613197
H -1.349992 2.200854 3.854817
H 1.349992 2.200854 -3.854817
H 0.769812 2.972775 4.511420
H -0.769812 2.972775 -4.511420
H 1.300327 1.928769 3.462863
H -1.300327 1.928769 -3.462863
H 2.824147 3.758604 4.048812
H -2.824147 3.758604 -4.048812
H 1.907597 4.664393 3.158877
H -1.907597 4.664393 -3.158877
C 0.729628 -1.730899 -4.842064
C -0.729628 -1.730899 4.842064
C 1.100537 -2.973970 -5.316864
C -1.100537 -2.973970 5.316864
N -2.973820 3.341349 -2.097468
C 1.326062 -3.156519 -6.687793
C -1.326062 -3.156519 6.687793
C 1.165779 -2.108167 -7.557404
C -1.165779 -2.108167 7.557404
C 0.758298 -0.876397 -7.082991
C -0.758298 -0.876397 7.082991
C 0.550381 -0.666031 -5.726794
C -0.550381 -0.666031 5.726794
H 0.194146 1.853142 8.393939
H -0.194146 1.853142 -8.393939
C 1.949587 -4.677759 -8.444402
C -1.949587 -4.677759 8.444402
H 0.322824 1.686240 -6.921823
H -0.322824 1.686240 6.921823
N -1.204157 -1.217155 -1.632530
N 1.204157 -1.217155 1.632530