109
Fe1 H52 C48 N8
H -2.527074 5.897276 1.179915
Fe -0.032102 -0.161920 -0.147003
H -2.380194 4.406696 -1.631587
H -1.818594 5.839946 -1.257717
H -0.833634 4.707386 -1.760840
H 1.732446 0.846386 4.834227
H 4.298526 -2.632024 -0.637093
H 4.354686 -1.769734 1.660605
H -0.043074 -3.790324 -3.598144
H -2.410434 -3.580894 -2.914496
H 3.486366 -0.946054 3.525682
H 1.611486 -0.733114 4.819272
H 2.808126 -0.039304 5.591581
H -3.296034 1.409156 4.043759
H -2.004354 1.172816 2.191500
H 2.021886 -3.204154 -3.749828
H -4.980834 -1.458514 -0.743913
H -5.788674 -2.364094 -2.758538
H 2.972286 1.317896 0.021986
H -4.976514 -1.030294 -3.025588
H -2.717154 -2.457694 5.133323
H 4.661406 2.868146 -0.411703
H -4.311234 -2.435464 -3.325753
H -3.771234 -3.990394 -1.204307
H -3.637314 -0.332974 5.552058
H 4.596606 4.268636 -2.208415
H -4.125474 -3.398374 0.221740
H 0.479646 2.732426 -4.219836
H -5.283234 -3.790324 -0.783437
H -1.943874 1.073366 -2.878177
H -1.278594 1.200896 -4.308497
H -0.133794 -3.652264 0.031600
H 1.153566 -3.341044 0.895774
H 0.138366 -4.463074 1.363645
H 3.922686 1.783556 3.942280
H 4.907646 0.579626 4.230694
H -1.118754 -3.755224 3.185995
H 4.626846 1.033586 2.739487
H 2.894526 4.116536 -3.808579
H -1.114434 -0.136414 -3.475301
C -2.039778 1.989476 -0.262155
H 4.531806 -2.495134 -2.653855
C -4.001490 0.920096 -0.750322
H 4.263966 -2.981854 -4.136516
C -3.460626 2.150936 -0.551637
H 3.732606 -1.567324 -3.659031
C -0.036162 2.528846 1.041049
H 1.952766 -5.007124 -2.261825
C -1.139922 2.930156 0.268740
H 3.287646 -5.091364 -3.109976
C 1.384254 2.451626 2.752305
H 3.330846 -4.568374 -1.615564
C 0.611406 3.294026 2.069726
C 1.340622 1.149416 2.107113
C -2.907666 -0.043984 -0.696912
C -1.426770 4.438286 0.171534
C 2.243502 0.064826 2.289775
C -2.502450 4.927346 1.177779
C 2.374398 -1.749844 -0.808005
C -1.632834 4.887566 -1.244899
C 3.626334 -2.125414 -0.220495
C 2.463390 -0.823204 1.242939
C 3.670398 -1.626994 1.032503
C 1.773054 -2.302084 -1.945638
C 0.372942 -2.286874 -2.148596
C -1.788354 -2.023624 -1.624110
C -0.385218 -3.204154 -2.946542
C -1.693314 -3.069604 -2.585490
C -2.966418 -1.352044 -1.150897
C 3.081582 -0.041644 3.543842
C -2.897298 0.574946 3.868574
C 2.229246 0.013346 4.813931
C -2.144754 0.442736 2.766192
C 0.069678 1.371716 -2.789516
C 2.581758 -3.129274 -2.936928
C 1.880190 2.650526 -2.738243
C -4.361778 -1.999054 -1.297241
C 1.882782 1.817486 -1.658292
C -4.911282 -1.953424 -2.735038
C 2.941182 1.875986 -0.734299
C -2.578914 -1.739314 4.542609
C -4.387698 -3.427624 -0.711867
C -0.540738 -2.585224 1.704401
C 3.934350 2.804966 -1.003486
C -3.119778 -0.481564 4.780817
C -1.817298 -1.877374 3.372930
C 3.905406 3.639176 -2.098391
C -1.564578 -0.826714 2.484187
C -1.175778 0.830006 -3.418686
C 4.238046 0.925946 3.620752
C 0.220446 -3.598444 0.932093
C 2.902302 3.581846 -3.036270
N -1.759410 0.634616 -0.376452
N 0.461502 1.221956 1.073095
N 0.696510 1.009016 -1.697816
N 0.729774 2.360366 -3.474232
C 3.899358 -2.483434 -3.387708
C 2.809422 -4.585924 -2.433806
N 1.706094 -0.953074 0.109579
N -0.511362 -1.539244 -1.373083
N -1.146402 -2.957284 2.839898
N -0.766242 -1.270144 1.432010
H 1.879326 2.664566 3.523546
H -4.911714 0.725876 -0.895598
H -3.922434 2.967596 -0.594365
H 0.509886 4.214816 2.231024
H -0.587394 4.877036 0.459948
H -3.369474 4.582196 0.916070
H -2.280834 4.607936 2.067589