90
Mn1 H34 C48 Br1 N4 O2
H -2.247953 -2.994988 -4.071795
H -3.612199 -4.417602 0.809405
H -2.951508 -3.721542 3.081640
H -3.425392 -6.969821 -3.240714
H -5.725174 -6.561466 -3.118426
H -6.500863 -4.564768 -2.201335
H -5.012547 -2.993662 -1.372651
C -2.350535 -2.994988 -1.283231
C -2.249568 -2.914112 0.097757
C -2.985234 -3.738778 1.031246
Mn -0.094860 -0.739489 -0.008596
C -2.618612 -3.371523 2.262777
H -0.756576 -1.280692 -5.086845
H -1.923963 -5.368220 -2.434376
C -3.304328 -4.011898 -1.840069
C -2.857649 -5.201166 -2.386420
C -3.748275 -6.158414 -2.866700
C -5.108226 -5.915787 -2.793810
C -5.567177 -4.731823 -2.244921
C -4.683586 -3.794462 -1.762922
H 1.737907 1.722309 4.110396
H 1.615592 3.024272 -2.991297
H 0.669834 4.286460 2.574280
H 1.853336 5.877454 3.804550
H 4.193103 5.754152 3.974512
C -0.405508 -0.608497 -3.094319
H 5.313598 4.021295 2.908579
C -0.933204 -1.396039 -4.160344
H 4.146653 2.410413 1.738907
C -1.735677 -2.344006 -3.605399
H 2.642789 1.425323 -4.232606
C -1.661021 -2.171649 -2.184384
H 3.199828 2.268550 -6.353675
H 1.549548 2.373290 -8.025375
H -0.581774 1.622871 -7.583399
H -1.177598 0.893666 -5.449640
H 2.994650 4.244034 -0.019112
C -1.616730 -2.337377 2.106538
H 2.934365 4.493289 -1.599987
C -0.960724 -1.702306 3.194084
H 1.615074 8.452212 -0.047720
C -0.096775 -0.603194 3.037713
H 0.383850 7.639480 -0.669653
C 0.552932 0.051765 4.117813
H -0.165170 8.372663 1.495035
H -0.119673 6.772388 1.477040
H 1.103229 7.601031 2.094946
C 0.346095 0.563535 -3.253115
C 1.218247 1.099169 3.615522
C 1.007848 1.113753 2.196364
C 1.536302 2.078956 1.358619
H -1.969994 -3.412624 8.032086
C 1.332791 1.992778 -0.046159
H -2.525427 -1.234288 7.441875
C 0.707454 0.949351 -0.741157
H -2.079904 -0.432162 5.274373
C 0.794191 1.294066 -2.116711
C 1.441599 2.546974 -2.187754
C 2.281217 3.183371 2.030075
C 1.615087 4.221495 2.647125
Br 1.841023 -2.312319 -0.262388
C 2.322140 5.172113 3.374796
N -0.838755 -1.124244 -1.879991
C 3.710585 5.101844 3.479256
N -1.415615 -2.062931 0.796831
C 4.366371 4.075654 2.854313
N 0.207404 0.027900 1.852167
C 3.672663 3.123709 2.151135
C 0.674795 1.067349 -4.620730
C 1.975601 1.481008 -4.906495
C 2.313591 1.976868 -6.172679
C 1.334534 2.035204 -7.164043
C 0.072805 1.608287 -6.893636
C -0.279826 1.150877 -5.626924
C 2.390220 4.274528 -0.802545
C 1.360718 5.344471 -0.594482
H 0.520951 -0.205446 5.032801
C 1.080497 7.623570 0.033181
C 0.416017 7.589098 1.394799
N 1.767896 2.957980 -0.986637
O 1.944386 6.475402 -0.174982
H -0.545532 -4.062280 4.313470
O 0.171674 5.219843 -0.809333
H -0.998430 -4.837889 6.443580
C -2.118112 -1.807046 6.801033
C -1.250596 -2.184907 4.577060
C -0.946770 -3.478915 4.948253
C -1.212158 -3.942955 6.210643
C -1.795840 -3.098403 7.153158
C -1.854911 -1.324445 5.512951