77
Ni1 H20 C44 N4 Cl8
Ni 0.004730 -0.001696 0.014335
H -4.017231 -1.929935 3.017850
H -3.824509 -4.054082 -0.390898
H 4.601353 1.934119 2.129514
H -3.091357 6.158060 -2.998787
H 1.771169 -4.346321 -2.639145
H -4.239603 3.619907 0.663622
H -4.959279 6.691126 -1.767336
H -1.755779 4.361329 -2.383476
H 3.042057 -6.221524 -3.204968
H -5.492970 5.446403 0.084254
H 6.438278 3.297903 2.449837
H -5.680302 -5.250099 0.254279
H -5.835288 -3.215247 3.694140
H 6.799463 5.067574 1.054170
H -6.614262 -4.901035 2.299484
C -4.350115 -2.598027 2.455159
C -4.257123 -3.842209 0.408836
Cl 1.942867 4.869501 2.067150
C 4.721299 2.643882 1.567920
C 0.757694 -2.856712 0.030950
C 2.474672 -1.359527 -0.793926
C 1.376291 2.497221 0.612966
C -1.320470 -2.497907 0.778566
C -2.514538 1.336922 -0.547454
C 2.652569 2.033967 0.333576
C -3.301599 5.681277 -2.239270
C -0.754433 2.841143 0.109182
C -4.091355 -0.257947 -0.346929
C -0.932331 -3.853303 1.174443
C -2.856856 -0.737977 0.192746
C 2.827771 0.773820 -0.259662
C -2.852813 3.808780 -0.806549
C 2.511060 -4.557924 -2.118271
C -3.992973 4.142150 -0.067464
C 1.981411 -2.644568 -0.618016
C -2.017235 2.633329 -0.436395
C -2.610226 -1.982430 0.762942
C 1.013758 3.812298 1.099453
C -4.420196 5.976222 -1.515204
C -2.503757 4.580779 -1.887356
C 0.311603 -4.064094 0.650457
C 3.291382 -5.671140 -2.469564
C -0.258477 4.046089 0.735712
C -3.866288 0.953223 -0.888134
C -4.753079 5.226953 -0.420450
C 2.819685 -3.827597 -1.000954
C -3.761167 -2.821806 1.222030
H 4.187608 -3.675253 0.475801
H 5.373589 -5.637045 -0.102363
C 5.835853 3.466481 1.748743
C -5.356852 -4.578489 0.818579
C 6.055529 4.523955 0.922178
C -5.448496 -3.372190 2.870802
C -5.933671 -4.355522 2.030789
N 1.888420 -0.224935 -0.250594
N -1.881116 0.221272 -0.002448
H 4.878981 -6.768120 -1.978146
N 0.236131 1.886495 0.131227
H 5.387067 5.476168 -0.682737
N -0.216698 -1.890428 0.185914
H 3.481409 4.207092 -0.941379
Cl -5.610221 -1.034275 -0.425109
Cl 1.129526 -5.547209 0.859746
Cl -4.953349 1.783129 -1.894889
Cl -1.798906 -4.993848 2.086796
Cl -1.122492 5.471568 1.120311
C 3.920762 -4.177201 -0.254776
C 3.765775 -0.987192 -1.322737
C 4.666043 -5.312064 -0.607144
C 4.360114 -6.036980 -1.730898
C 4.002972 0.305967 -0.965488
C 3.835856 2.916368 0.552486
C 5.191649 4.790759 -0.101837
C 4.069009 4.004418 -0.257986
Cl 4.860383 -1.902334 -2.269406
Cl 5.423185 1.147508 -1.370387