69
P2 H30 C36 N1
C 1.657737 2.157637 0.391055
C -3.247781 -1.155076 3.793956
C 3.247781 1.155076 -3.793956
C 0.523810 -3.156834 2.412238
C -0.523810 3.156834 -2.412238
C -2.997475 0.076257 4.359386
C 2.997475 -0.076257 -4.359386
C -1.592606 -3.526907 -0.522863
C 1.592606 3.526907 0.522863
C 1.903577 -2.386410 0.625596
C -1.903577 2.386410 -0.625596
C 2.728568 -4.018095 2.145453
C -2.728568 4.018095 -2.145453
C -3.222794 -3.436071 -2.274537
C 3.222794 3.436071 2.274537
C 1.544914 -3.996788 2.815392
C -1.544914 3.996788 -2.815392
C -2.390641 -4.159395 -1.483180
C 2.390641 4.159395 1.483180
C 2.904392 -3.231970 1.040809
C -2.904392 3.231970 -1.040809
C -2.514562 -1.438799 -1.195869
C 2.514562 1.438799 1.195869
C -3.302263 -2.086987 -2.132166
C 3.302263 2.086987 2.132166
H 3.704765 -3.268977 0.569135
H -3.418577 4.568718 -2.437806
H -3.704765 3.268977 -0.569135
N 0.000000 0.000000 0.000000
P -0.592744 -1.238399 0.719184
P 0.592744 1.238399 -0.719184
H -2.736636 -2.378560 2.279059
H 2.736636 2.378560 -2.279059
H -1.901818 1.747193 4.188555
H 1.901818 -1.747193 -4.188555
H -0.669427 1.065361 2.364002
H 0.669427 -1.065361 -2.364002
H 3.471037 -0.344280 -5.113868
H 3.887169 1.716914 -4.169840
H -0.278663 -3.141134 2.882633
H 0.278663 3.141134 -2.882633
H -3.887169 -1.716914 4.169840
H -1.024231 -4.024823 0.020089
H 1.024231 4.024823 -0.020089
H 2.035414 -1.843636 -0.117357
H -2.035414 1.843636 0.117357
H -3.471037 0.344280 5.113868
H -3.740488 -3.865580 -2.916803
H 3.740488 3.865580 2.916803
H 1.421056 -4.551897 3.551192
H -1.421056 4.551897 -3.551192
H -2.350168 -5.083456 -1.579167
H 2.350168 5.083456 1.579167
H -2.564327 -0.513616 -1.110229
H 2.564327 0.513616 1.110229
H -3.887589 -1.598042 -2.664084
H 3.887589 1.598042 2.664084
H 3.418577 -4.568718 2.437806
C -2.552005 -1.556773 2.672704
C 2.552005 1.556773 -2.672704
C -1.573073 -0.728259 2.130463
C 1.573073 0.728259 -2.130463
C -2.052204 0.908361 3.814270
C 2.052204 -0.908361 -3.814270
C -1.325527 0.507673 2.715065
C 1.325527 -0.507673 -2.715065
C 0.697511 -2.339534 1.307022
C -0.697511 2.339534 -1.307022
C -1.657737 -2.157637 -0.391055