53
Co1 H20 C26 N6
Co 0.000959 -0.002983 -0.001718
C -2.802435 -3.279649 -2.254863
C 1.750093 -0.835754 -0.006141
H 0.639919 2.397801 4.390510
C -1.749668 0.809039 -0.020309
H 1.646546 4.754604 -0.254695
H 2.288478 3.780575 -2.448571
H 0.227126 -0.387626 -5.025615
H -1.544266 -1.991544 -4.369423
H -2.663432 -4.268835 0.335292
H 0.385623 4.931023 1.733710
H 0.276271 4.194289 3.150880
H 1.706504 4.393070 2.461128
H 2.186370 0.824942 -4.688510
H 1.282082 2.145597 -4.712066
C 0.557481 0.362029 4.127389
H 2.696877 2.158021 -3.963098
H -3.500250 -3.558191 -1.625514
H -3.215178 -2.830154 -3.021634
H -2.308490 -4.067569 -2.565142
N 0.252057 0.480429 1.856607
N 0.771655 1.692623 -0.544981
N -0.246165 -0.488631 -1.856517
C -1.407434 -3.512968 1.786276
N -0.781890 -1.692005 0.551630
N 2.772680 -1.341529 0.014255
N -2.796574 1.291209 -0.075923
C 0.287006 -2.573477 4.108542
H 0.687514 0.001241 4.996900
C 0.322531 -0.383650 2.915655
C 0.557970 1.664918 3.792748
H -1.460252 -4.138385 2.498894
C 0.410686 1.745549 2.360230
C 0.601975 2.889412 1.593857
C 0.873560 2.819715 0.225279
C 1.493833 3.862075 -0.540221
C 1.821408 3.339528 -1.748231
C 1.324475 1.984459 -1.765474
C 1.236709 1.177282 -2.900389
C 0.395502 0.064478 -2.933693
C -0.075656 -0.564293 -4.142352
C -1.027974 -1.451480 -3.781976
H 0.006515 -3.498557 3.946039
C -1.117539 -1.428371 -2.342536
H 1.244513 -2.554344 4.316441
C -1.851783 -2.327112 -1.564963
H -0.219105 -2.206477 4.863665
C -1.612041 -2.480050 -0.198570
C -2.045212 -3.597202 0.596125
C -0.633095 -2.299780 1.771848
C 0.022183 -1.742446 2.874155
C 0.755912 4.218640 2.296564
C 1.909242 1.614601 -4.178076