63
Fe1 H20 C36 Br2 N4
C 2.641843 -2.478975 -2.347813
H -1.580189 -0.979375 3.933673
C -0.484273 -3.655870 4.252066
H 2.089975 -3.812220 -0.108871
C 1.810392 -2.187458 -1.194555
C -0.935409 2.729558 -1.060722
C -0.083600 -3.012411 3.087336
H -3.158473 0.620458 4.985891
C -0.735506 3.650672 -2.168095
H -1.708080 5.393643 -1.756417
C -0.384863 -1.700803 2.528297
Br 2.112305 1.262228 0.799021
H -4.459057 2.478455 5.547309
H -0.981800 6.483214 -3.666688
C -1.158270 4.963580 -2.370756
H -4.647828 4.274683 4.118852
N 0.252749 -1.562192 1.327623
C -1.231041 -0.764094 3.098808
C -0.732040 5.600542 -3.514837
H 0.322163 5.397347 -5.219862
N -1.210466 0.971361 1.374274
C -1.616120 0.453085 2.571123
H -3.543855 4.287418 2.090533
H 1.018554 3.224681 -4.879184
C 0.064974 4.948203 -4.447079
C -2.536802 1.395642 3.208168
H 1.580189 0.979375 -3.933673
C 0.484273 3.655870 -4.252066
C -3.219678 1.353625 4.417254
H 3.158473 -0.620458 -4.985891
C 0.083600 3.012411 -3.087336
C -4.002182 2.464680 4.737688
Br -2.112305 -1.262228 -0.799021
C 0.384863 1.700803 -2.528297
H 4.459057 -2.478455 -5.547309
C -4.117186 3.551912 3.876568
C 1.231041 0.764094 -3.098808
N -0.252749 1.562192 -1.327623
H 4.647828 -4.274683 -4.118852
C -3.454018 3.568589 2.673601
N 1.210466 -0.971361 -1.374274
C 1.616120 -0.453085 -2.571123
H 3.543855 -4.287418 -2.090533
C -2.641843 2.478975 2.347813
Fe 0.000000 0.000000 0.000000
C -1.654238 2.991186 0.081829
C 2.536802 -1.395642 -3.208168
C 0.935409 -2.729558 1.060722
C -1.810392 2.187458 1.194555
H -2.089975 3.812220 0.108871
C 3.219678 -1.353625 -4.417254
C 0.735506 -3.650672 2.168095
H 1.708080 -5.393643 1.756417
C 4.002182 -2.464680 -4.737688
C 1.158270 -4.963580 2.370756
H 0.981800 -6.483214 3.666688
C 4.117186 -3.551912 -3.876568
C 0.732040 -5.600542 3.514837
H -0.322163 -5.397347 5.219862
H -1.018554 -3.224681 4.879184
C 3.454018 -3.568589 -2.673601
C -0.064974 -4.948203 4.447079
C 1.654238 -2.991186 -0.081829