197
Dy1 H60 C116 N12 Cl4 O4
H 7.019002 1.937270 -2.432656
H -3.222301 3.812462 2.909221
N -1.196668 -1.676113 1.913252
H 6.111710 4.050072 -2.143948
H -4.645248 1.843082 2.893945
N -1.690566 1.215878 1.873535
H 3.770592 4.268416 -1.786498
H -3.918544 -3.354367 2.011016
N -1.834166 -0.757783 -0.865380
H 6.109534 0.518032 -4.287114
H -1.910317 -4.782167 1.985047
N -3.161379 1.256550 -1.225884
H 6.640420 -0.678580 -6.176706
H -5.489442 0.291126 0.737031
N -0.807207 1.813114 -0.851632
H 7.369299 -2.836335 -7.281132
N -1.227129 -3.086788 -1.146451
H -7.771815 0.169110 1.199881
H 8.252658 -4.895621 -6.914517
H -6.995068 -2.044302 4.403175
Cl -9.275265 -0.886221 3.285001
H 7.943700 -6.057983 -4.931745
H -4.740981 -1.907301 3.999899
Cl -1.124868 9.290120 3.278890
H 7.410639 -4.859230 -3.065066
H -0.367703 -4.899902 4.108356
H 4.471187 -4.621620 0.330700
H -0.150127 -7.192517 4.566624
H 6.026855 -4.272697 1.977409
H -2.117014 7.575690 1.293062
O -5.996395 0.348923 -1.823160
H 8.235252 -3.410024 2.677032
H -1.962536 5.306622 0.879094
O -4.571272 3.814603 -2.195885
H 10.226072 -2.333287 2.177520
H -0.191467 -5.696216 -1.745254
H 10.572018 -1.494160 -0.005364
H -1.592656 7.059798 -2.395995
H 8.981537 -1.733910 -1.587916
H -3.761889 6.197124 -2.478483
H -7.019002 -1.937270 -2.432656
H -6.111710 -4.050072 -2.143948
H -3.770592 -4.268416 -1.786498
H -6.109534 -0.518032 -4.287114
C 1.677511 -2.568756 2.168354
H -6.640420 0.678580 -6.176706
C 2.972088 -2.958351 2.643426
H -7.369299 2.836335 -7.281132
C 3.751010 -1.881614 2.640370
H -8.252658 4.895621 -6.914517
C 2.941628 -0.783471 2.168354
H -7.943700 6.057983 -4.931745
C 3.402889 0.556564 2.121000
H -7.410639 4.859230 -3.065066
C 2.567397 1.703941 1.965189
H -4.471187 4.621620 0.330700
C 3.033009 3.069663 1.994213
H -6.026855 4.272697 1.977409
C 1.927723 3.853134 1.994213
H -8.235252 3.410024 2.677032
C 0.802855 2.992601 2.009488
H -10.226072 2.333287 2.177520
C 0.548292 -3.420727 2.136276
H -10.572018 1.494160 -0.005364
C 5.783170 0.164829 1.493173
H -8.981537 1.733910 -1.587916
C 7.151723 0.231188 1.766606
C 7.558590 0.903346 2.887835
C 6.683935 1.547675 3.680639
C 5.339315 1.477035 3.431646
C 4.856296 0.762064 2.327221
C -1.677511 2.568756 2.168354
C 0.754989 -4.854949 2.438732
C -2.972088 2.958351 2.643426
C 0.137073 -5.435060 3.541631
C -3.751010 1.881614 2.640370
C 0.258915 -6.807203 3.824229
C -2.941628 0.783471 2.168354
C 1.018256 -7.560705 2.938245
C -3.402889 -0.556564 2.121000
C 1.625293 -7.031970 1.865897
C -2.567397 -1.703941 1.965189
C 1.520856 -5.674810 1.609267
C -3.033009 -3.069663 1.994213
C 0.060921 -2.956210 -1.102152
C -1.927723 -3.853134 1.994213
C 0.979092 -4.060775 -1.473349
C -0.802855 -2.992601 2.009488
C 0.678837 -5.368700 -1.788026
C -0.548292 3.420727 2.136276
C 1.742784 -6.171436 -2.172971
C -5.783170 -0.164829 1.493173
C 3.056943 -5.644841 -2.231018
C -7.151723 -0.231188 1.766606
C 3.309331 -4.302666 -1.917869
C -7.558590 -0.903346 2.887835
C 2.262790 -3.512774 -1.516120
C -6.683935 -1.547675 3.680639
C 2.125718 -2.112802 -1.123537
C -5.339315 -1.477035 3.431646
C 2.969912 0.051375 -1.144923
C -4.856296 -0.762064 2.327221
C 4.077374 1.027502 -1.485569
C -0.754989 4.854949 2.438732
C 5.387182 0.886221 -1.838436
C -0.137073 5.435060 3.541631
C 6.137819 2.029317 -2.148530
C -0.258915 6.807203 3.824229
C 5.578649 3.294430 -2.037018
C -1.018256 7.560705 2.938245
C 4.192690 3.439992 -1.759002
C -1.625293 7.031970 1.865897
C 3.505149 2.277630 -1.445853
C -1.520856 5.674810 1.609267
C 2.080027 2.076411 -1.118955
C -0.060921 2.956210 -1.102152
C 6.361922 -1.001815 -3.002436
C -0.979092 4.060775 -1.473349
C 6.351043 -0.378892 -4.219902
C -0.678837 5.368700 -1.788026
C 6.699165 -1.093862 -5.347241
C -1.742784 6.171436 -2.172971
C 7.147372 -2.448881 -5.286138
C -3.056943 5.644841 -2.231018
C 7.449802 -3.187398 -6.424171
C -3.309331 4.302666 -1.917869
C 7.867548 -4.446089 -6.196564
C -2.262790 3.512774 -1.516120
C 7.776166 -5.143934 -4.980626
C -2.125718 2.112802 -1.123537
C 7.436748 -4.433245 -3.891476
C -2.969912 -0.051375 -1.144923
C 7.114735 -3.050398 -3.964799
C -4.077374 -1.027502 -1.485569
C 6.710044 -2.331146 -2.832877
C -5.387182 -0.886221 -1.838436
C 6.609959 -2.960491 -1.473349
C -6.137819 -2.029317 -2.148530
C 5.472036 -3.626227 -1.151034
C -5.578649 -3.294430 -2.037018
C 5.250109 -4.150682 0.142810
C -4.192690 -3.439992 -1.759002
C 6.190037 -3.960165 1.117393
C -3.505149 -2.277630 -1.445853
C 7.401936 -3.296570 0.836322
C -2.080027 -2.076411 -1.118955
C 8.383203 -3.097492 1.813960
C -6.361922 1.001815 -3.002436
C 9.573344 -2.440318 1.522196
C -6.351043 0.378892 -4.219902
C 9.777865 -1.935130 0.202385
C -6.699165 1.093862 -5.347241
C 8.835761 -2.089255 -0.740120
C -7.147372 2.448881 -5.286138
C 7.632566 -2.772116 -0.488072
C -7.449802 3.187398 -6.424171
C -7.867548 4.446089 -6.196564
C -7.776166 5.143934 -4.980626
C -7.436748 4.433245 -3.891476
C -7.114735 3.050398 -3.964799
C -6.710044 2.331146 -2.832877
C -6.609959 2.960491 -1.473349
C -5.472036 3.626227 -1.151034
C -5.250109 4.150682 0.142810
C -6.190037 3.960166 1.117393
C -7.401936 3.296570 0.836322
C -8.383203 3.097492 1.813960
C -9.573344 2.440318 1.522196
C -9.777865 1.935130 0.202385
C -8.835761 2.089255 -0.740120
C -7.632566 2.772116 -0.488072
Dy 0.000000 0.000000 0.608257
N 1.196668 1.676113 1.913252
H 3.222301 -3.812462 2.909221
N 1.690566 -1.215878 1.873535
H 4.645248 -1.843082 2.893945
N 1.834166 0.757783 -0.865380
H 3.918544 3.354367 2.011016
N 3.161379 -1.256550 -1.225884
H 1.910317 4.782167 1.985047
N 0.807207 -1.813114 -0.851632
H 5.489442 -0.291126 0.737031
N 1.227129 3.086788 -1.146451
H 7.771815 -0.169110 1.199881
H 6.995068 2.044302 4.403175
Cl 9.275265 0.886221 3.285001
H 4.740981 1.907301 3.999899
Cl 1.124868 -9.290120 3.278890
H 0.367703 4.899902 4.108356
H 0.150127 7.192517 4.566624
O 5.996395 -0.348923 -1.823160
H 2.117014 -7.575690 1.293062
O 4.571272 -3.814603 -2.195885
H 1.962536 -5.306622 0.879094
H 0.191467 5.696216 -1.745254
H 1.592656 -7.059798 -2.395995
H 3.761889 -6.197124 -2.478483