182
Fe2 H88 C74 N8 Cl2 O8
H -0.074026 -2.443498 -0.812987
H -0.552546 -3.969660 -0.833623
H 1.836867 -3.777432 -0.914171
H 1.360660 -4.632351 0.352085
H 1.811383 -3.108256 0.539326
H 1.184931 -0.748746 -0.061249
C 0.385139 0.044888 2.778100
C 1.443293 1.043059 2.719463
C 1.446262 1.664405 3.935404
C 0.405926 1.074953 4.707461
C -0.038058 -1.520291 -5.972474
C 0.988255 -1.011165 -6.732084
C 3.469609 3.553252 -4.867331
C 3.005435 4.042296 -3.654670
C 2.075606 3.444575 -2.828700
C 1.690753 3.977326 -1.551924
C -0.844863 -3.064207 0.983393
C 0.709909 1.976260 -1.923517
C 0.043653 -0.807987 1.726187
C 2.508547 1.197805 1.667144
C 3.517611 0.067332 1.725827
C 2.394636 2.741721 4.385653
C 1.978515 4.137979 3.889803
C 1.234827 -4.024577 -8.229081
C 2.166633 5.282627 -0.994834
C -0.083321 -3.286285 -0.293279
C 1.361941 -3.742254 -0.057833
C 0.393446 -0.411081 0.341311
N 0.222449 -0.053157 -4.023426
N 1.780562 0.063788 -6.370974
N 2.999512 2.386160 -5.439236
Fe -1.785761 -1.022741 4.615482
N 1.422188 2.253858 -3.077903
H 0.539435 2.236883 6.344439
Cl 3.592926 -0.590634 -2.492199
O 3.360976 -0.031894 -3.817906
H -3.364185 -4.871723 3.362608
O 4.871504 -1.222611 -2.542228
O 3.576820 0.464238 -1.525275
H -2.975291 -2.060425 -1.798542
H -2.084887 -1.212134 -0.772780
O 2.562718 -1.541554 -2.202815
H -4.187531 -0.191082 -1.021705
H -3.058092 0.788047 -1.593323
H -3.959065 -0.068738 -2.600904
H -3.302832 -2.536251 -4.050504
H -2.430921 -2.748053 -5.375501
H -2.594759 -4.810096 -4.249372
H 1.067664 4.334931 4.192346
H -2.008841 -4.158958 -2.910050
H 0.274932 2.622815 8.551394
H -0.756625 4.746816 8.687459
H -2.191983 4.088897 8.426820
H -1.094614 4.102529 7.262063
H -2.112271 -5.250071 0.007380
H -3.117915 -5.409436 1.240801
H 0.074026 2.443498 0.812987
H 0.552546 3.969660 0.833623
H -1.836867 3.777432 0.914171
H -1.360660 4.632351 -0.352085
H -1.811383 3.108256 -0.539326
H -1.184931 0.748746 0.061249
C -0.385139 -0.044888 -2.778100
C -1.443293 -1.043059 -2.719463
C -1.446262 -1.664405 -3.935404
C -0.405926 -1.074953 -4.707461
C 0.038058 1.520291 5.972474
C -0.988255 1.011165 6.732084
H 4.196579 1.210492 -8.266759
C -3.469609 -3.553252 4.867331
C -3.005435 -4.042296 3.654670
C -2.075606 -3.444575 2.828700
C -1.690753 -3.977326 1.551924
C 0.844863 3.064207 -0.983393
C -0.709909 -1.976260 1.923517
C -0.043653 0.807987 -1.726187
C -2.508547 -1.197805 -1.667144
H 0.847068 -2.590932 -9.692315
C -3.517611 -0.067332 -1.725827
C -2.394636 -2.741721 -4.385653
C -1.978515 -4.137979 -3.889803
H 2.612361 -1.236137 -10.446111
C -1.234827 4.024577 8.229081
H 3.577112 -0.041805 -9.994287
H 4.876820 -1.939960 -10.416466
H 4.952385 -1.619092 -8.850451
H 4.010123 -2.798823 -9.380969
H 5.831275 4.498927 -8.010967
H -5.167497 -7.435143 5.448178
H 5.236021 3.193662 -8.727346
H -4.503311 -6.685027 6.696071
H 7.504335 2.945301 -8.360798
H -3.730981 -6.746465 5.295790
C -2.166633 -5.282627 0.994834
H 7.282993 3.164237 -6.791043
H 6.690131 1.862563 -7.508847
C 0.083321 3.286285 0.293279
H 5.411579 5.408739 -4.319703
C -1.361941 3.742254 0.057833
H 6.165549 5.335807 -5.726270
C -0.393446 0.411081 -0.341311
H 1.754043 7.303751 -1.144304
H 1.384507 6.496390 -2.475720
H 0.436042 6.397223 -1.190558
N -0.222449 0.053157 4.023426
N -1.780562 -0.063788 6.370974
N -2.999512 -2.386160 5.439236
N -1.422188 -2.253858 3.077903
Cl -3.592926 0.590634 2.492199
O -3.360976 0.031894 3.817906
O -4.871504 1.222611 2.542228
O -3.576820 -0.464238 1.525275
O -2.562718 1.541554 2.202815
H -4.196579 -1.210492 8.266759
C 1.369214 -1.508478 -8.026215
C 2.425033 -0.769005 -8.446369
C 2.670730 0.209084 -7.418821
C 3.608727 1.219068 -7.521124
C 3.744139 2.247951 -6.594442
H -0.847068 2.590932 9.692315
C 4.658032 3.346530 -6.731626
C 4.500034 4.141523 -5.649536
H -2.612361 1.236137 10.446111
H -3.577112 0.041805 9.994287
H -4.876820 1.939960 10.416466
H -4.952385 1.619092 8.850451
H -4.010123 2.798823 9.380969
H -5.831275 -4.498927 8.010967
H -5.236021 -3.193662 8.727346
H -7.504335 -2.945301 8.360798
H -7.282993 -3.164237 6.791043
H -6.690131 -1.862563 7.508847
C 0.700595 -2.666120 -8.716651
C -4.610985 -6.676522 5.722046
H -5.411579 -5.408739 4.319703
H -6.165549 -5.335807 5.726270
C 3.217177 -0.923751 -9.727110
C 4.366330 -1.907746 -9.580717
C 5.639229 3.535533 -7.889730
C 6.881052 2.817322 -7.614828
C 1.363867 6.476888 -1.495762
C 5.273343 5.387759 -5.299969
H 5.167497 7.435143 -5.448178
H 4.503311 6.685027 -6.696071
H -1.754043 -7.303751 1.144304
H 3.730981 6.746465 -5.295790
H -1.384507 -6.496390 2.475720
H -0.436042 -6.397223 1.190558
Fe 1.785761 1.022741 -4.615482
C -1.369214 1.508478 8.026215
H -0.539435 -2.236883 -6.344439
C -2.425033 0.769005 8.446369
C -2.670730 -0.209084 7.418821
H 3.364185 4.871723 -3.362608
H 2.975291 2.060425 1.798542
C -3.608727 -1.219068 7.521124
C -3.744139 -2.247951 6.594442
H 2.084887 1.212134 0.772780
C -4.658032 -3.346530 6.731626
H 4.187531 0.191082 1.021705
C -4.500034 -4.141523 5.649536
H 3.058092 -0.788047 1.593323
H 3.959065 0.068738 2.600904
H 3.302832 2.536251 4.050504
H 2.430921 2.748053 5.375501
H 2.594759 4.810096 4.249372
H -1.067664 -4.334931 -4.192346
H 2.008841 4.158958 2.910050
H -0.274932 -2.622815 -8.551394
H 0.756625 -4.746816 -8.687459
H 2.191983 -4.088897 -8.426820
H 1.094614 -4.102529 -7.262063
C -0.700595 2.666120 8.716651
C -3.217177 0.923751 9.727110
C -4.366330 1.907746 9.580717
C -5.639229 -3.535533 7.889730
C -6.881052 -2.817322 7.614828
C -5.273343 -5.387759 5.299969
C -1.363867 -6.476888 1.495762
C 4.610985 6.676522 -5.722046
H 2.112271 5.250071 -0.007380
H 3.117915 5.409436 -1.240801