47
H20 Au1 C22 N2 Cl2
C 1.491480 0.358260 -1.671920
C 1.697779 -0.892896 -2.210897
C 2.353496 -1.096573 -3.431781
C 2.782257 -0.000286 -4.151498
C 3.037247 2.415675 -4.402807
C -1.624373 0.991816 -4.539517
H -3.509181 -1.618436 -4.765113
C 1.947069 1.513678 -2.404992
H -2.646358 0.038197 -6.037169
C 2.584658 1.289353 -3.673730
N -0.976326 1.048132 1.162943
C -1.332286 0.943947 -3.202552
N 1.101707 -0.601930 0.594048
Cl -1.322209 0.092635 4.073987
Cl 1.202069 -1.933900 3.372199
H 3.068453 4.463704 -4.441731
H 2.047034 4.780951 -2.412539
H 1.301083 3.004178 -1.143017
C -2.157715 -1.196065 -0.227423
C -2.965303 -2.172211 -0.844987
C -3.211112 -2.124342 -2.188307
C -2.668880 -1.078740 -2.979626
H -0.727217 1.875040 1.416925
H -1.862287 0.969289 1.297342
H 0.863966 -1.371583 0.191802
C -2.950961 -0.976432 -4.366098
H 1.976824 -0.647921 0.797631
C -2.449758 0.005345 -5.118989
H -0.811044 1.722048 -0.749037
H 1.296268 1.337221 0.086500
H -0.784522 1.611293 -2.830391
C 2.799787 3.722208 -3.930346
H 1.385737 -1.642839 -1.738391
C 2.179206 3.905236 -2.728403
C 1.738702 2.843677 -1.960566
H 2.497994 -1.966657 -3.756281
H 3.213631 -0.127936 -4.976019
H 3.500671 2.289902 -5.210402
H -1.274544 1.682627 -5.073046
Au 0.008764 -0.334335 2.282472
C -0.667804 0.854780 -0.293748
C 0.849016 0.554427 -0.323562
C -1.569611 -0.172989 -0.961668
H -2.014968 -1.237363 0.701473
H -3.337835 -2.863021 -0.327189
H -3.741926 -2.787933 -2.590713
C -1.835278 -0.088515 -2.358274