86
Zn1 H32 C48 N4 O1
H 2.549171 -1.677776 -0.661675
C 2.667743 -5.867223 3.481062
C 1.684945 -5.262249 2.693849
C -3.971586 -2.368843 -1.995118
C -4.652852 -3.557850 -2.123086
C -5.869529 -3.595079 -2.772075
C -6.416680 -2.461916 -3.284395
C 2.114291 0.329110 1.985268
C 3.033725 -0.482952 2.768943
C 2.594761 -1.753398 2.705169
C 1.435973 -1.726639 1.879285
C -2.706640 -2.033780 -1.313329
C -2.579054 -0.643503 -1.479747
C -3.658129 -0.067614 -2.210607
C 2.802644 -3.154146 3.086688
C -3.447462 1.256349 -2.241071
C -2.208500 1.499502 -1.501776
C -1.603113 2.714105 -1.209681
C -0.462591 2.876982 -0.382924
C 0.231083 4.099728 -0.115680
C 1.273375 3.818183 0.674508
C 1.247910 2.410454 0.922596
C 2.172369 1.683321 1.728025
H 1.834601 -2.314163 -1.907858
C -5.762216 -1.233353 -3.183833
C -4.553218 -1.189143 -2.542047
C -2.238490 3.942668 -1.797486
H 4.326813 -5.561246 4.575573
C -2.333580 4.082277 -3.166393
C -2.957062 5.182865 -3.714167
C -2.772866 4.919934 -1.002277
C 3.324151 2.436049 2.312524
C 4.356020 2.886290 1.508629
C 5.446446 3.522676 2.046959
C 5.530950 3.726273 3.390625
C 4.507451 3.313262 4.210151
C 3.413800 2.664078 3.660962
C 1.976899 0.660682 -2.250986
C 3.357819 -1.191470 -2.363258
C 2.259903 -1.510245 -1.572397
N 1.133160 -0.501566 1.449196
N -0.772765 -2.246685 0.110918
N -1.702679 0.280246 -1.061882
N 0.187229 1.855506 0.276302
O 1.341563 -0.439906 -1.592592
H -7.242664 -2.506126 -3.709968
H -6.139216 -0.463174 -3.545444
H -3.021069 5.265467 -4.639183
H -3.904198 6.897735 -3.274951
H -3.729771 6.685994 -0.996330
H 3.064562 0.186010 -3.803313
H 3.899565 0.735141 -2.588293
H 3.424081 -1.802261 -3.114278
H -0.636758 -5.337871 0.906097
H -2.508045 -4.827133 -0.601361
H 4.414955 -3.286775 4.255571
H 2.635803 -6.786319 3.619675
H 0.997682 -5.768333 2.326533
H -4.291693 -4.339663 -1.771031
C -3.482739 6.155478 -2.904304
H -6.320052 -4.404814 -2.860525
C -3.383568 6.025175 -1.551944
C 3.146391 0.176703 -2.837267
Zn -0.145589 -0.185933 0.007157
H 3.784439 -0.180465 3.228108
H -3.983530 1.895062 -2.652611
H -0.002636 4.940875 -0.436124
H 1.897633 4.425484 1.001545
C 0.904295 -3.009883 1.658317
C -0.173249 -3.249546 0.821680
C -0.859903 -4.502541 0.563991
C -1.885489 -4.220995 -0.268231
H -1.974260 3.429603 -3.723354
C -1.837535 -2.802796 -0.545546
H -2.722494 4.836168 -0.077954
H 4.309622 2.755987 0.589183
H 6.131033 3.815856 1.489947
H 6.279669 4.143938 3.752922
H 4.548369 3.469159 5.125444
H 2.726992 2.376715 4.219300
H 2.186344 1.358730 -1.612141
H 1.390487 1.029484 -2.929805
C 1.748824 -3.913854 2.471944
H 4.176918 -1.247314 -1.846057
C 3.735863 -3.782389 3.859609
C 3.682048 -5.137764 4.056807