167
Sn1 H65 Pd1 C79 N9 O12
H -3.010869 0.100319 -3.075544
H -1.994621 1.305363 -2.752492
H -3.361604 0.444834 -0.894154
H -5.792462 2.511924 1.626862
H 4.369433 -0.896802 0.044673
H 5.054468 -1.356661 1.424906
C -0.798180 1.452578 0.172413
C -0.452066 2.555937 -0.693365
H 5.750747 -3.209757 0.533278
C -1.757968 3.288980 0.980022
H 5.284757 -2.235402 -1.543331
H 5.275069 -3.769784 -3.741233
H -6.396551 3.905161 -0.124742
H 6.576705 -4.700126 -3.696444
H -5.487075 3.639566 -2.254379
H 6.662371 -1.863568 -3.231967
H 7.951967 -2.816676 -3.298671
C -4.007610 2.609056 4.687893
C -4.351510 1.528463 5.525679
C -3.990487 0.165580 5.328720
C -4.201550 -0.913496 6.277261
C -1.020846 3.682061 -0.178398
C -3.662586 -2.019890 5.742361
C -3.075082 -1.658681 4.474700
C -2.326196 -2.541975 3.637781
C -2.472653 4.166203 1.828373
C -3.162056 3.806511 3.013474
C -1.650631 -2.188353 2.463953
C -3.838123 4.714088 3.900272
C -0.808930 -3.062541 1.689117
C -4.379913 3.973457 4.900625
C -0.278414 -2.315839 0.683289
C -0.769035 -0.981792 0.776971
C -0.386536 0.115496 -0.005876
C -5.097108 1.876013 6.791792
C -6.362437 1.376694 7.004119
C -7.090517 1.760669 8.141218
C -6.530726 2.627268 9.030687
C -2.472545 5.612559 1.446697
C -5.253068 3.093198 8.843068
C -3.159818 6.031441 0.285199
C -4.551897 2.725918 7.713029
C -3.115828 7.362452 -0.061125
C -7.264879 3.096234 10.200096
C -2.437284 8.312525 0.670168
C -2.217843 -3.980742 4.046760
C -1.798749 7.914891 1.829269
C -2.873827 -4.933850 3.340174
C -1.824191 6.574773 2.207054
C -2.814507 -6.299768 3.692785
C -1.747896 10.572361 0.912184
C -2.022692 -6.648836 4.774377
C -1.313578 -5.698764 5.460362
C -1.411515 -4.363199 5.116555
C -2.636065 -8.943579 4.531449
C 0.585522 -0.160723 -1.110367
C 1.793241 0.529824 -1.159974
C 2.726006 0.262712 -2.151635
C 2.462634 -0.743515 -3.076738
C 1.273077 -1.459864 -3.041430
C 0.326173 -1.151773 -2.068969
C 3.460153 -1.030358 -4.076781
C 0.036557 0.268782 4.306750
C 0.024869 -0.309457 5.576712
C 1.063485 -1.162397 5.953292
C 2.076621 -1.473523 5.060708
C 2.054796 -0.919567 3.792544
C 1.070431 -0.046897 3.430625
C 3.102071 -0.737444 1.663657
C 4.217392 -1.380944 0.896694
H 3.234397 0.246017 -8.702709
N -7.789487 3.506009 11.111326
H 3.293861 0.353773 -7.106480
H 2.134363 -1.839285 -8.550602
H 2.258502 -1.810449 -6.954289
H 1.106111 -0.036273 -5.778100
H 0.208728 -1.346037 -6.006682
H -0.616744 1.328128 -6.621618
H -1.508655 0.027470 -6.947957
H -3.195890 0.812114 -5.323831
C -2.771614 1.033697 -3.303459
H -2.281069 2.099113 -5.015542
C -4.347972 1.998946 -1.775937
C -3.977528 1.150559 -0.737597
C -4.515897 1.338752 0.542538
C -5.420703 2.376850 0.762826
C -5.772249 3.205507 -0.282311
C -5.245486 3.047668 -1.550657
N -1.596008 1.932167 1.176444
N -3.268555 2.540760 3.524205
N -3.314977 -0.341328 4.235149
N -1.622035 -0.939297 1.857856
N 4.272188 -1.226140 -4.849171
C 4.902100 -3.451069 0.084464
C 5.015649 -3.176368 -1.390116
C 6.162909 -3.885128 -3.317947
C 7.037593 -2.677049 -3.653641
C 8.100805 -3.097448 -5.773653
H 9.663824 -3.695417 -8.019702
H 9.142920 -3.237075 -10.276757
O -1.894136 -7.947977 5.220149
H 7.210174 -2.073009 -10.805243
O -0.932172 1.130829 3.939045
O 3.110095 -1.270153 2.979860
O 3.847685 -2.710438 0.638366
O -3.874990 1.901814 -3.076648
O -2.453777 9.590417 0.209924
O -4.183660 0.494918 1.548202
Pd 5.626152 -1.669001 -6.256701
N 7.086580 -2.511621 -5.089413
O 5.991997 -4.056626 -1.913452
O 9.016678 -3.751571 -5.326729
C 3.322496 -0.279103 -7.867910
C 2.145346 -1.244352 -7.758517
C 0.413734 -0.443013 -6.357302
C -0.822510 0.400821 -6.339761
C -2.446463 1.153594 -4.775022
C 7.957378 -2.853100 -7.272272
H -7.964047 1.417671 8.289653
C 8.859771 -3.244664 -8.249947
C 8.553359 -2.957821 -9.585235
C 7.410061 -2.279415 -9.901719
C 6.541869 -1.893922 -8.890110
C 5.207145 -1.213998 -9.059233
O 0.891445 -0.541663 -7.672273
O -1.282916 0.376538 -4.986143
Sn -2.503249 0.788742 2.685207
H 0.077750 2.504336 -1.481646
H -4.638184 -0.849753 7.120127
H -3.666653 -2.886490 6.128628
H -0.653305 -3.985295 1.848300
H 0.326016 -2.634553 0.023967
H -0.942881 4.563837 -0.526543
N 6.865376 -2.188353 -7.624610
H -3.895094 5.658090 3.803668
N 4.602269 -0.957509 -7.870937
H -4.911905 4.304313 5.614820
H -6.743189 0.771137 6.378470
H -3.676913 3.067398 7.575841
H -3.642131 5.407671 -0.243269
H -3.390992 -4.674325 2.588274
H -3.577287 7.640189 -0.843369
H -1.343713 8.552319 2.365546
H -3.297954 -6.955409 3.203052
H -1.386003 6.312213 3.007100
H -0.749104 -5.959806 6.179172
H -0.930981 -3.709076 5.609544
H -0.791032 10.364438 0.892029
H -2.057936 10.595126 1.842791
H -3.593719 -8.782705 4.656580
H -1.902857 11.446549 0.495717
H -2.403598 -9.826873 4.882515
H -2.420933 -8.907155 3.573802
O 4.764916 -0.980274 -10.178294
H 1.979732 1.194571 -0.506929
H -4.853436 3.665366 9.487413
H 3.534597 0.758995 -2.197109
H 1.109115 -2.150411 -3.671532
H -0.502027 -1.616185 -2.055191
H -0.685642 -0.122781 6.181405
H 1.076457 -1.532713 6.830071
H 2.777863 -2.060868 5.315317
H 1.092071 0.352255 2.568798
H 3.230754 0.242982 1.693981
H 2.234568 -0.927155 1.225909
H 4.741773 -4.417836 0.229460
H 4.143466 -3.328137 -1.835085