71
Zn1 H22 C44 N4
C -1.128084 2.634632 -1.068167
H 1.814023 -4.923118 1.278151
C 4.476684 -3.829427 4.405313
C -1.045520 4.056161 -0.847293
H 0.267551 -5.346352 -0.586031
C 3.497041 -3.742093 3.416586
N 0.442998 -2.229200 0.185400
H -1.509938 4.725274 -1.335842
C -0.194485 4.268450 0.171881
N -1.084420 -0.430119 -1.352908
C 0.321535 2.994717 0.600783
H 0.027801 5.112231 0.547965
H 3.419241 6.680212 2.254056
N -0.265140 2.015233 -0.191613
C 1.199562 2.746151 1.674323
H 3.054852 1.811005 3.715822
H 2.869085 6.837413 4.505175
N 1.266248 0.306173 1.489028
C 1.659217 1.491229 2.097614
H 1.613172 5.176723 5.512015
H -4.131318 -2.832476 -4.790126
C 2.629334 1.184888 3.140338
H -4.187684 -5.143468 -5.117317
C 2.812719 -0.164087 3.142075
H -2.811896 -6.554248 -3.897101
H -1.361483 -5.695688 -2.262524
C 1.950569 -0.681373 2.134937
C 2.018049 -2.088122 2.004625
C -1.864007 -3.739406 -2.550900
H -4.603675 0.240337 -5.093096
C -2.711073 -2.875471 -3.330740
H -5.512663 2.325604 -5.703832
H -4.795793 4.276511 -4.679824
C -1.819550 0.480841 -2.048140
C -3.568460 -3.403506 -4.277892
H -3.173903 4.217393 -2.989193
H 2.660295 4.874413 0.972107
C 2.888931 6.004381 2.657381
C -3.597039 -4.775322 -4.471747
C 2.570587 6.093059 3.994349
C -1.912434 -5.109878 -2.765813
C -2.781728 -5.617759 -3.737725
Zn 0.105204 -0.063585 0.057311
C -2.919069 2.196619 -3.023408
H 0.875661 3.349427 4.261455
C -3.381105 0.991409 -3.657251
H 4.798998 -0.671967 5.129085
C 4.965712 -2.716927 5.019716
H 5.644477 -2.801573 5.679815
C -4.320261 1.035748 -4.659322
C -4.850570 2.281265 -5.023044
H 4.808525 -4.683957 4.658616
C -4.425053 3.444823 -4.410657
H 3.168376 -4.529443 2.996795
C 1.305148 -2.840538 1.061797
C -3.458905 3.413920 -3.406938
C 1.669537 3.931206 2.473162
C 1.305942 -4.270128 0.808644
C 2.438010 4.925470 1.892886
C 0.460463 -4.501227 -0.200732
C -0.110334 -3.226151 -0.599084
C -1.051871 -2.914436 -1.597672
C 1.827519 5.117605 4.587030
C -1.459130 -1.611144 -1.864572
C 1.382154 4.031976 3.837605
C -2.437186 -1.486189 -2.903594
C 3.001662 -2.488515 3.042902
C -2.677730 -0.131840 -3.024180
C 3.520063 -1.335706 3.711351
C 4.474303 -1.445881 4.685038
C -1.899731 1.870124 -1.979385