83
Ni1 H34 C42 N6
Ni -0.768697 0.107244 0.168902
H 2.942511 -3.269178 -0.088603
H -4.488181 3.508291 0.433614
C -1.225573 5.392857 1.549146
C 0.845711 -4.400209 1.209140
H 0.297805 4.756925 -1.463721
H 2.311506 3.453119 -1.936690
C 1.414650 -4.604346 2.469121
H 4.397616 0.743873 -1.773067
C 1.920144 -5.854432 2.776712
C -1.972435 5.711404 0.293889
H 6.563034 0.886159 -2.566838
C 1.877388 -6.909673 1.891427
C 1.980831 -0.372638 -0.791208
H 7.876766 -1.012926 -2.736575
H 6.994048 -3.048490 -2.093725
C 3.032507 -1.385774 -0.857159
C 1.460855 -3.505838 3.485560
C 2.506669 -2.459018 -0.229810
H 4.859664 -3.202391 -1.317274
C 1.178454 -2.150635 0.178491
H -3.826142 6.609549 -2.774351
C 2.424949 -8.264586 2.309281
C 0.324011 -3.028163 0.850527
H -2.146909 7.678148 0.677671
H -4.008892 3.418273 -2.469083
H -3.612359 4.414276 -3.613657
H -2.533099 3.461830 -2.991779
H -2.767570 9.408812 -1.120436
C -3.550983 0.567903 1.058951
H -3.712354 8.909359 -2.267880
C -4.574384 1.581039 1.107794
H -4.253709 9.016799 -0.798553
C -4.056821 2.692033 0.549778
C -2.710332 2.374357 0.166953
N -3.776145 -0.648499 1.519809
C -1.835889 3.290796 -0.390136
C -0.541121 2.941179 -0.728662
C 0.420903 3.849487 -1.301447
H 1.294311 -7.398382 0.050108
C 1.524990 3.138347 -1.553624
C 1.262244 1.788080 -1.115264
C 4.378996 -1.242616 -1.425166
C 4.916903 -0.024472 -1.827939
C 6.219601 0.060319 -2.311935
C 7.005772 -1.067517 -2.414215
C 6.474417 -2.279563 -2.029866
H 0.880537 -4.869172 -1.668333
C 5.194821 -2.369291 -1.558101
H -0.029766 -6.126518 -1.447488
C -2.283110 4.720918 -0.629033
H -0.550431 -4.703656 -1.049027
C -2.985147 5.025526 -1.792159
C -3.361681 6.383053 -2.002144
C -3.049626 7.379056 -1.073355
C -2.360693 7.023050 0.053445
C -3.314442 3.987418 -2.806240
C -3.488227 8.810630 -1.339795
C 1.324999 -6.696824 0.658548
C 0.800541 -5.446157 0.285213
C 0.222981 -5.270477 -1.095070
N 0.854676 -0.856701 -0.177424
N -1.554178 -1.449657 0.968099
N -2.404139 1.060387 0.471951
N 0.006440 1.678897 -0.593061
N 2.184960 0.853637 -1.254928
H -1.746928 -4.462640 2.055184
H -3.822694 -3.214006 2.368653
H -5.429517 1.484342 1.458802
C -0.964205 -2.687257 1.182575
C -1.900714 -3.577562 1.813134
C -3.040316 -2.891684 1.982919
C -2.829981 -1.578005 1.464959
H -1.136611 6.188498 2.079928
H -1.705550 4.727887 2.047522
H -0.353889 5.058920 1.326790
H 2.304609 -5.987135 3.613315
H 1.980486 -3.788959 4.240083
H 1.859802 -2.726168 3.094967
H 0.570207 -3.298216 3.772096
H 3.328700 -8.162081 2.620590
H 1.880491 -8.626689 3.014226
H 2.411501 -8.861897 1.557642