111
Co1 P1 H43 C62 N4
Co 0.239248 -0.593603 -0.163334
P -0.609968 1.371827 0.421812
H 3.926189 1.989469 -2.479870
H 4.785202 1.571900 -0.228547
H -3.585556 -2.779534 2.307645
H -4.382935 -2.740481 -0.000863
H -0.114057 -0.077349 -5.112249
H -6.558147 -3.479488 -4.723358
H -5.331795 -4.934973 -3.404950
H -2.632173 -3.978168 7.177442
H -2.622184 -5.301473 5.287087
H -1.858176 -4.472342 3.287798
H -4.345211 -0.407800 -3.424402
H 6.098114 0.980093 4.625240
H 8.012188 0.298163 3.516107
H 7.847321 -0.577531 1.379095
H 0.588129 2.331936 -4.861588
H 1.381848 3.030388 -6.910965
H 3.421593 2.280866 -7.692903
H 4.693957 0.847913 -6.390172
H 3.878349 0.093884 -4.371151
H -0.045539 2.477635 -2.154126
H 1.142315 4.265072 -2.982986
H 2.316098 5.645454 -1.540180
H -3.131283 0.171991 0.971994
H -5.297400 0.406310 0.203248
H -5.808867 2.028522 -1.363892
H -4.175695 3.490015 -2.060455
H -2.013599 3.288741 -1.295950
H -2.112454 -1.145305 -4.469293
C 2.302074 0.729251 -1.950694
C 3.531615 1.457744 -1.828195
C 4.001467 1.227931 -0.591924
C 3.076976 0.359747 0.058216
C -1.747261 -2.021751 1.551933
C -3.104727 -2.498651 1.563592
C -3.547965 -2.461100 0.299141
C -2.505601 -1.916006 -0.500028
C -2.601395 -1.693553 -1.861294
C -1.557257 -1.035656 -2.523573
C -0.359800 -0.506935 -1.964946
C -0.380543 -0.289138 -4.246805
C 0.348792 -0.027782 -3.087632
C 1.594565 0.603079 -3.120656
C -5.127817 -4.027736 -3.408842
C -2.329799 -3.637203 6.365977
C -2.318335 -4.424277 5.238368
C -1.864786 -3.927099 4.041522
C -3.772127 -2.189229 -2.634098
C 6.035087 0.606083 3.775247
C -4.530957 -1.319543 -3.424008
C 7.180727 0.209542 3.110034
C 7.079489 -0.319179 1.835564
C 2.135516 1.122787 -4.409396
C 1.405583 2.016506 -5.172075
C 1.885965 2.441586 -6.396682
C 3.106879 1.998481 -6.863607
C 3.859860 1.131800 -6.090767
C 3.374362 0.688695 -4.879538
C 0.349907 2.794116 -0.198636
C 0.407066 3.040903 -1.567932
C 1.123519 4.105855 -2.067240
C 1.816015 4.936488 -1.205800
C 1.760882 4.709678 0.154397
C -2.325183 1.666529 -0.123096
C -3.331183 0.829888 0.346446
C -4.630689 0.972583 -0.111452
C -4.943117 1.951918 -1.033131
C -3.961993 2.814094 -1.460603
C -2.663281 2.689424 -1.009345
N 1.982604 0.110106 -0.752040
N -1.388519 -1.619352 0.284597
N -1.504985 -0.886953 -3.917539
H 3.421927 -1.857276 3.599258
H 1.233857 -2.644349 4.370357
H 4.028138 0.708222 3.641325
H -6.046978 -1.236930 -4.738045
H 5.780979 -0.817859 0.374679
H -1.135323 -0.936521 5.034730
H -1.892128 -1.788182 7.038099
H -3.610077 -4.140389 -2.095297
H 2.222948 5.272946 0.733611
H 0.980160 3.515550 1.590950
H -2.591525 2.121649 2.473392
H -2.524092 2.398026 4.768463
H -0.543185 2.102123 5.918408
H 1.378115 1.508814 4.778706
H 1.319604 1.179865 2.503612
C 3.331919 -0.268109 1.281593
C 2.396713 -1.059839 1.917827
C 2.608984 -1.744623 3.163051
C 1.412152 -2.189229 3.578835
C 0.464860 -1.826785 2.562134
C -0.897052 -2.097904 2.651446
C 4.672134 -0.084859 1.915944
C 4.792980 0.448368 3.179111
C -5.555676 -1.816721 -4.202250
C -5.860631 -3.158050 -4.197866
C 5.839383 -0.466380 1.232968
C -1.414464 -2.617313 3.946498
C -1.430958 -1.816721 5.081976
C -1.885390 -2.327417 6.280436
C -4.095272 -3.551587 -2.628454
C 1.023895 3.652236 0.672140
C -0.643906 1.597435 2.231966
C -1.795094 1.983461 2.932275
C -1.752884 2.159201 4.307566
C -0.568859 1.980457 4.996021
C 0.578180 1.621467 4.315078
C 0.542677 1.427703 2.951696
N 1.074057 -1.185410 1.520905