85
H31 Pt1 C50 N3
H 2.586508 -4.236662 0.704718
H 2.693820 -4.126399 -1.730667
H 4.174832 -2.547843 -3.124708
H 5.262931 -3.676348 -4.814569
H 4.056308 -4.489816 -6.636577
H 1.775658 -3.981258 -6.838536
H 0.671089 -2.927012 -5.136500
H 1.383860 -0.415723 -5.374074
H -0.227703 1.447491 -5.359816
H -2.916702 1.206713 -4.896795
H -3.569202 4.685613 -6.818556
H -2.476690 5.843371 -5.101111
H -3.854508 2.374598 -6.677830
H -1.474304 4.647359 -3.355062
H -3.200534 3.862019 -1.637096
H -3.105763 3.926151 0.790397
Pt -0.004887 0.024653 -0.410554
C 1.453466 -2.031409 1.986344
C 1.641320 -2.325067 0.654362
C 2.262887 -3.523330 0.167540
C 2.311067 -3.472699 -1.157272
C 1.680871 -2.253059 -1.564146
C 1.608337 -1.797382 -2.908397
C 2.309145 -2.545593 -3.931426
C 3.675395 -2.837001 -3.879924
C 4.327090 -3.522205 -4.875139
C 3.619142 -3.984633 -5.961778
C 2.254652 -3.707851 -6.065896
C 1.609838 -3.053026 -5.073647
C 0.891405 -0.645249 -3.286720
C 0.878283 -0.107438 -4.630229
C 0.009791 0.911930 -4.612145
C -0.511631 1.064947 -3.258148
C -1.430333 2.002180 -2.860614
C -2.076389 2.803272 -3.962333
C -2.803815 2.148447 -4.950552
C -3.366698 2.838151 -6.007514
C -3.212977 4.208558 -6.078952
C -2.539031 4.896012 -5.074779
C -1.958024 4.183805 -4.028890
C -1.788919 2.232831 -1.531722
C -2.684891 3.287077 -1.083238
C -2.651592 3.300579 0.236907
C -1.840054 2.248583 0.699860
C -0.035761 -0.017427 1.577905
N 1.253572 -1.612861 -0.442406
N 0.094183 0.111963 -2.468560
N -1.317811 1.620761 -0.437877
H -2.299052 1.127954 4.642003
H -2.156427 0.430374 6.752732
H -0.425689 -0.503483 7.749894
H 2.010535 -1.311326 4.752765
H 1.524015 -1.139181 6.879003
H 0.145134 -3.644844 3.631209
H 0.900512 -5.149142 5.258665
H 3.232635 -5.474304 5.498450
H 4.731375 -4.294044 4.149020
H 3.959928 -2.790871 2.553687
H -3.171434 5.267305 5.715965
H -4.113834 2.750391 2.710150
H -0.897368 4.780124 5.423179
H -0.260900 3.284827 3.792991
H -4.765667 4.300819 4.349511
C -0.808915 0.808418 2.431918
C -0.663055 0.361741 3.811458
C -1.524158 0.621646 4.860641
C -1.408860 0.241352 6.197824
C -0.335183 -0.379719 6.813460
C 0.457816 -0.574366 3.791944
C 1.156531 -0.933283 4.931555
C 0.856449 -0.848898 6.269074
C 0.731578 -0.899529 2.409714
C 1.952808 -3.019272 2.979210
C 1.079496 -3.761858 3.757475
C 1.517739 -4.672087 4.716369
C 2.902051 -4.859984 4.852829
C 3.797731 -4.152277 4.048517
C 3.343716 -3.252174 3.109336
C -1.616540 1.920045 2.026287
C -2.099497 2.860653 3.065558
C -3.456260 3.166689 3.255144
C -2.903665 4.658610 5.037142
C -1.552316 4.369452 4.870357
C -1.183909 3.483975 3.900913
C -3.847908 4.082544 4.238630