133
Sn1 H52 C66 N6 O8
C -2.221097 1.702239 6.066574
C -2.121900 1.130360 7.466637
C 0.817056 3.228876 4.261662
C 3.165309 2.771617 3.995877
C 3.398062 3.210586 5.294025
C 2.340211 3.659310 6.075806
C 1.049809 3.667845 5.559960
C -5.559814 1.275463 -1.465012
C -6.753594 1.576645 -2.110448
C -6.762888 1.813201 -3.479401
C -5.579361 1.748574 -4.204236
N -1.293888 1.318141 5.189948
O -3.101257 2.510674 5.773503
O -4.630555 -3.220313 -5.759333
H 4.865927 1.401935 1.088449
H 5.490564 -1.263218 0.370402
H 7.483560 -1.754132 1.493982
H 7.509651 -1.877482 3.830527
C 5.500971 -1.313236 1.319094
C 6.684503 -1.604662 1.985809
C 6.700419 -1.677824 3.374289
C 5.531842 -1.459559 4.094736
H 2.383589 6.622901 -3.551385
H 2.999419 8.025651 -1.782631
H 2.785341 7.285500 0.426798
Sn -0.030270 0.044398 -0.039986
H 1.710897 -5.257886 -5.783520
H 2.905701 -5.445777 -4.735573
H 3.225311 -5.029171 -6.247255
H 5.221473 3.147277 5.221423
H -2.219506 1.892154 3.479109
H -0.593599 3.487673 2.763745
H 1.716212 2.479556 2.592835
H 1.007491 -3.773622 -3.920628
H 2.238224 -1.331965 -3.764030
H 0.397474 -0.038201 -4.502752
H 0.987174 -0.921419 -5.698177
H -1.830853 -0.537614 -3.591632
H -3.952280 -1.454450 -3.957689
H -2.467105 -3.673988 -7.006322
H -0.345655 -2.757176 -6.640288
H -1.849312 -5.064935 -0.842117
H -2.636954 -6.402437 3.572789
H -1.816616 -4.256451 3.129252
H 0.733743 -4.601981 2.018464
H 2.970315 -3.462502 2.355542
H -3.952032 -3.376330 -0.188036
H -3.575760 1.401399 -4.055233
H -2.997824 3.535277 -2.411880
H -0.864072 4.760513 -2.107732
H 1.553682 4.479999 -3.110724
H 1.955432 5.142611 0.867469
H 3.863287 3.414633 -0.012163
H 5.542746 -1.509918 5.043508
H 3.549731 -1.019004 3.919947
C 2.297019 6.322390 -2.654873
C 2.662477 7.155212 -1.602919
C 2.535300 6.716243 -0.291055
C 2.487416 -3.471501 -5.127280
C 2.591649 -4.928635 -5.506136
C -1.275787 1.813201 3.802165
C -0.610317 3.200831 3.711418
C 1.874906 2.780152 3.479881
C -0.546557 0.785281 2.929443
C 1.338742 -1.763179 -3.832885
C 0.500504 -0.964499 -4.836436
H -3.063458 -7.879666 1.808919
C -0.888778 -1.561131 -5.081512
C -1.960322 -1.174229 -4.284763
C -3.220101 -1.719282 -4.501988
C -2.338082 -3.037287 -6.313164
C -1.077744 -2.492722 -6.095818
C 0.695174 -1.771715 -2.419430
C -2.009528 -5.335901 0.053686
C -2.496759 -6.611350 0.317271
C -3.409066 -2.650872 -5.516294
C -2.477203 -6.130923 2.676863
C -1.989771 -4.856693 2.413801
C -1.755933 -4.459182 1.101466
C -1.239895 -3.084964 0.782959
C 0.070161 -2.776466 1.147614
C 0.950896 -3.710495 1.771123
C 2.194424 -3.086184 1.957131
C 2.051275 -1.736353 1.408822
C -2.135133 -2.237510 0.100240
C -3.490205 -2.558201 -0.328224
C -3.965449 -1.458339 -0.965737
C -2.971646 -0.408471 -0.946849
C -3.085799 0.864539 -1.499612
C -4.376085 1.209618 -2.190818
H -2.669640 -7.210921 -0.398537
C -4.385379 1.446173 -3.559772
C -2.044748 1.860756 -1.515520
C -2.205947 3.186199 -2.019536
C -1.050178 3.865382 -1.847117
C -0.162864 2.949643 -1.189903
C 1.190754 3.209366 -0.800424
C 1.676450 4.610410 -1.080910
C 1.803626 5.049379 -2.392774
C 2.041907 5.443232 -0.028956
C 2.079337 2.303383 -0.185210
C 3.419688 2.591151 0.153564
C 3.980508 1.496167 0.756833
C 2.918605 0.515803 0.778242
C 3.030621 -0.779157 1.359343
C 4.332394 -1.094970 2.039541
C 4.348310 -1.168132 3.428020
N 1.528395 -3.144713 -4.249968
N 0.744166 -1.626611 0.914918
N -1.849844 -0.936454 -0.282996
N -0.790396 1.721749 -1.037406
N 1.821185 1.018179 0.194780
C -2.730597 -7.008861 1.629605
O 3.263321 -2.619169 -5.570688
O 4.651698 3.215463 5.834460
O 0.162019 -0.076806 3.412637
O -0.771818 0.998669 1.662683
O 0.276964 -2.785002 -1.919519
O 0.679185 -0.558453 -1.924173
H -1.908996 1.849013 8.097723
H -1.415053 0.452420 7.492278
H -2.977096 0.721228 7.712887
H -0.672843 0.751480 5.448606
H -1.159841 3.853676 4.213595
H 3.888875 2.464655 3.461548
H 2.499241 3.959675 6.962972
H 0.326567 3.974587 6.094285
H -5.192697 -2.922229 -5.210553
H -4.823861 -1.388117 -1.367168
H -5.553438 1.113337 -0.529435
H -7.562957 1.621786 -1.615141
H -7.578890 2.020028 -3.920885
H -5.585297 1.909835 -5.140930