103
Zn1 H38 C57 N6 O1
Zn 0.235521 -1.978334 0.934890
H 2.138800 -3.594457 -2.628495
H -0.208160 -4.335671 -3.633170
H -2.570453 -4.035068 -2.927685
H -4.925669 -1.950058 1.398264
H -4.123693 -0.738034 3.411493
H -1.742530 0.001808 4.291861
H 0.558435 0.984604 5.159373
C 4.532936 0.217309 2.186814
H 2.875911 0.998330 4.277548
C 5.286558 -0.459392 3.144691
C 6.552030 -0.022899 3.501334
C 7.089826 1.119121 2.902705
C 6.342101 1.805431 1.962149
C 1.979585 4.613811 -2.078499
C 5.062477 1.374428 1.590288
C 2.519739 5.514250 -3.002048
C 1.661153 6.336449 -3.726580
C 4.282908 2.185646 0.612848
C 4.840754 2.604295 -0.595365
C 0.302510 6.241738 -3.521414
C 4.117796 3.393552 -1.482463
H 1.381640 3.633760 0.260208
C -0.171600 5.280904 -2.624969
H 2.581067 2.331144 1.740847
C -1.624592 5.079129 -2.418412
C -2.523278 6.149773 -2.504467
C -3.867768 5.908192 -2.344959
C -4.304138 4.604203 -2.095365
H -5.501206 2.528801 -0.787314
H -6.164016 0.310647 -0.604709
H -2.755615 -0.864315 -2.425328
H -2.092805 1.355211 -2.613492
H -6.839799 -1.477876 -2.328933
H -7.654748 -3.661715 -2.451838
H -6.356254 -5.429649 -1.646335
H -4.245169 -5.006883 -0.731303
H 0.344968 -5.490045 3.961213
H 1.888772 -5.908694 4.014788
H 1.373385 -4.640393 4.845857
H 3.459703 5.565037 -3.134430
H 3.048100 -3.690540 1.593166
C 3.173114 -1.094916 0.580949
N 0.648068 4.497138 -1.917132
C 2.511484 -2.398905 -1.059951
C 1.703610 -3.152473 -1.910216
C 0.321380 -3.324050 -1.813530
C -0.510081 -3.917022 -2.834541
C -1.795602 -3.767407 -2.445947
C -1.761400 -3.115412 -1.148407
C -2.897141 -2.743432 -0.406525
C -2.855862 -2.073594 0.824126
C -4.023446 -1.742792 1.610850
C -3.587076 -1.082562 2.709162
C -2.150595 -1.001577 2.604935
C -1.321492 -0.363309 3.523060
C 0.061917 -0.202713 3.435286
C 0.862714 0.564582 4.363002
C 2.124648 0.571445 3.882051
C 2.118751 -0.195849 2.649697
C 3.209675 -0.366054 1.784845
C 2.815763 3.782003 -1.186122
C 2.266173 3.368845 0.036946
C 2.977338 2.593314 0.918867
H 5.193388 -0.968634 -0.134573
H 4.455097 -2.473026 -1.981191
C -3.345304 3.589837 -1.989522
C -3.741575 2.178783 -1.746010
C -4.942181 1.842491 -1.134619
C -5.337272 0.516540 -1.022293
C -4.548269 -0.514297 -1.509371
H 4.925669 -1.233550 3.560514
C -3.324075 -0.176633 -2.099010
H 7.054445 -0.500571 4.151964
C -2.928984 1.147946 -2.212726
H 2.007890 6.956873 -4.356374
C -5.029455 -1.928096 -1.490045
H 7.959027 1.421097 3.137599
H -0.300152 6.816866 -3.979770
C -6.304361 -2.195757 -2.014445
H 6.705349 2.586451 1.560538
H -2.208384 7.030995 -2.671344
C -6.796162 -3.494255 -2.081170
H 5.728825 2.346243 -0.814406
H -4.492838 6.620582 -2.402804
C -6.027208 -4.540192 -1.605077
H 4.516425 3.670821 -2.297738
H -5.229949 4.410663 -1.998078
C -4.764095 -4.284884 -1.065840
C -4.251066 -2.986386 -1.007698
C 1.544394 -4.267040 2.840553
C 1.263703 -5.153753 4.017820
C 2.973800 -4.011733 2.515787
N 2.079832 -1.745537 0.068673
N -0.460547 -2.866968 -0.791244
N -1.729557 -1.632983 1.465036
N 0.839127 -0.673521 2.421271
N -2.033836 3.819064 -2.156188
O 0.632736 -3.764661 2.200578
H 3.331151 -3.333659 3.126199
H 3.484470 -4.842168 2.614200
C 4.320648 -1.322770 -0.261387
C 3.917301 -2.138107 -1.271928