18
H10 C8
C 0.002199 1.294390 0.408552
H -0.223301 -0.533814 -2.249296
C 0.132564 0.289003 1.311123
H 0.596767 2.671171 -1.900011
C 0.094592 -1.022753 0.948385
C -0.030404 -1.302861 -0.389335
H -0.255255 1.764572 -2.827089
C -0.134737 -0.307477 -1.330786
H -0.949509 2.674923 -1.780332
C -0.187212 2.137215 -1.956831
H -0.545773 -2.677141 1.922216
C 0.224377 -2.123177 1.957055
H 0.997058 -2.640877 1.762439
H 0.305347 -1.748032 2.826572
C -0.111683 1.035541 -0.950156
H -0.012956 2.193487 0.713205
H 0.254990 0.507837 2.227795
H -0.044564 -2.210711 -0.671739