77
H8 Pt1 C44 N4 F20
F -1.168228 1.250657 7.748611
F 0.014520 3.640737 8.258866
F 1.168228 -1.250657 -7.748611
F -0.014520 -3.640737 -8.258866
H -1.816411 3.522374 3.217391
H -3.133625 3.856072 1.188472
H -3.268877 1.577225 -3.592314
H -2.051989 -0.215335 -4.669702
C -0.084265 -1.446027 -3.088338
C -0.816759 1.965114 2.177449
H 1.816411 -3.522374 -3.217391
C -1.737500 3.040365 2.426604
H 3.133625 -3.856072 -1.188472
C -2.462710 3.222901 1.311433
H 3.268877 -1.577225 3.592314
C -2.010877 2.263161 0.345250
H 2.051989 0.215335 4.669702
C -2.509318 2.144798 -0.945986
Pt 0.000000 0.000000 0.000000
C -2.067630 1.229266 -1.878372
C 0.084265 1.446027 3.088338
C -2.585681 1.073825 -3.209787
C 0.816759 -1.965114 -2.177449
C -1.924826 0.089842 -3.799404
C 1.737500 -3.040365 -2.426604
C -0.973624 -0.420688 -2.848252
C 2.462710 -3.222901 -1.311433
C -0.098586 -2.044973 -4.463277
C 2.010877 -2.263161 -0.345250
C -0.514523 1.410376 5.521687
C 2.509318 -2.144798 0.945986
C -0.560903 1.932314 6.768453
C 2.067630 -1.229266 1.878372
C 0.036074 3.098833 7.015077
C 2.585681 -1.073825 3.209787
C -0.659992 -3.811864 -6.017754
C 1.924826 -0.089842 3.799404
C -0.692346 -3.248570 -4.747979
C 0.973624 0.420688 2.848252
C -3.580726 3.090277 -1.382955
C 0.098586 2.044973 4.463277
C -3.285099 4.245387 -2.077561
C 0.514523 -1.410376 -5.521687
C -4.259626 5.086764 -2.550339
C 0.560903 -1.932314 -6.768453
C -5.566587 4.783013 -2.303619
C -0.036074 -3.098833 -7.015077
C -5.917848 3.677815 -1.602087
C 0.659992 3.811864 6.017754
C -4.904842 2.835012 -1.139633
C 0.692346 3.248570 4.747979
N -1.012660 1.501644 0.898090
C 3.580726 -3.090277 1.382955
N -1.073180 0.286639 -1.681947
C 3.285099 -4.245387 2.077561
F -1.092140 0.222466 5.310702
C 4.259626 -5.086764 2.550339
C 5.566587 -4.783013 2.303619
C 5.917848 -3.677815 1.602087
F -1.231452 -4.984088 -6.246662
C 4.904842 -2.835012 1.139633
F -1.302566 -3.931654 -3.779365
N 1.012660 -1.501644 -0.898090
N 1.073180 -0.286639 1.681947
F -2.028276 4.542008 -2.350229
F -3.971261 6.187684 -3.235296
F 1.092140 -0.222466 -5.310702
F -6.577357 5.554512 -2.782326
F -7.196602 3.362655 -1.354862
F -5.247625 1.726961 -0.460769
F 1.231452 4.984088 6.246662
F 1.302566 3.931654 3.779365
F 2.028276 -4.542008 2.350229
F 3.971261 -6.187684 3.235296
F 6.577357 -5.554512 2.782326
F 7.196602 -3.362655 1.354862
F 5.247625 -1.726961 0.460769