159
Mn1 Co2 H52 C84 N16 O4
N 1.578212 -1.220245 -1.101473
N 2.310282 -4.165229 -3.168090
N 2.786135 -4.745380 -0.753757
C 4.520908 -1.053829 -5.884523
H 2.970394 -2.183538 -6.489066
C 5.288947 -0.775548 -4.804332
N -1.381913 -0.245525 -1.394740
N -0.513482 -1.744002 0.872382
C 4.882772 -4.718657 -2.446089
Mn -0.013898 0.029052 0.048792
Co 3.538102 -3.460515 -1.918052
H 1.298829 -6.818479 0.160705
H -0.146144 -8.102993 -1.065245
O 1.422913 -3.866492 -5.276706
H -0.565762 -7.618306 -3.255078
H 0.481552 -5.830674 -4.311537
O 3.066689 -5.779257 1.292514
C 5.051553 -1.433102 -3.595566
C 4.440824 -3.973381 0.657503
C 5.218723 -3.980384 1.810665
C 6.221420 -3.057082 1.960441
C 6.428923 -2.155894 0.976857
C 5.649159 -2.207496 -0.173017
H -3.916161 -1.571689 -2.792142
H -4.849272 -2.950192 -0.326696
H -6.198728 -4.645678 -1.171225
H -5.308622 -6.260075 -2.540059
H -3.065829 -6.271132 -2.983788
H -1.710389 -4.577490 -2.176719
H -1.693146 -4.702808 0.853385
H 0.007970 -4.380297 2.573512
H 3.563214 -2.469191 3.369124
H 3.024093 -4.549846 6.724379
H 0.782737 -4.221806 6.583968
H -0.116357 -3.075511 4.774757
H 2.775271 -0.202401 4.308306
N 1.325039 0.323569 1.523420
N 0.466771 1.803617 -0.783949
N -1.512148 1.285019 1.295286
N -5.850001 5.453517 2.344165
N -2.743039 4.750812 0.777342
N -2.542430 4.310908 3.269964
N -4.220080 2.386716 3.417838
N -4.414762 2.922084 0.219610
Co -3.561117 3.486054 1.910424
O -2.824529 5.654395 -1.337036
O -1.954891 4.178586 5.493347
H -3.250808 0.518181 -3.860909
H -2.082542 5.108891 -5.647904
H -1.912044 3.800419 -7.484015
H -1.352260 1.566802 -7.283884
H -0.929606 0.685886 -5.186309
H 3.223932 2.022002 3.418353
H 2.503421 6.776733 2.658588
H 1.274120 5.018588 1.779675
H 1.999249 4.578131 -1.051671
H 0.628612 4.080543 -3.007437
H -1.731514 4.240877 -3.534344
C 4.203220 3.710853 1.567895
H -0.977734 6.137240 4.538145
C 4.931126 4.774033 2.092033
H 0.079362 7.958044 3.535151
C 4.294020 5.906875 2.506599
H -0.047338 8.287926 1.272436
H -1.275724 6.874408 -0.054794
H -4.467161 4.205861 -2.732762
H -5.861393 2.440345 -3.152417
H -6.286406 0.930995 -1.463012
H -5.351054 1.247977 0.628874
H -3.485339 2.381372 6.568380
H -5.122857 0.741174 6.619963
C 3.507732 -1.973445 -5.759335
H -6.137395 0.129325 4.662507
H -5.590991 1.196375 2.675862
C 2.283701 -2.084573 -1.385990
C 1.550599 -5.246654 -2.686782
C 1.811787 -5.555711 -1.346235
C 1.149429 -6.624972 -0.736258
C 0.281862 -7.380569 -1.466465
C 0.032499 -7.091231 -2.779662
C 0.657650 -6.020495 -3.417253
C 2.232996 -3.609589 -4.353060
C 3.294764 -2.585847 -4.532976
C 3.352527 -4.931146 0.449111
C -3.197635 -1.034478 -2.546634
N 5.732063 -5.433525 -2.707992
C -2.285279 -1.286221 -1.478057
C -2.248661 -2.459055 -0.726287
C -3.143500 -3.581024 -1.168740
N 4.072957 -2.325443 -3.455057
C -4.481392 -3.608483 -0.868838
N 4.672799 -3.092281 -0.338554
C -5.293383 -4.629091 -1.379652
C -4.760485 -5.599020 -2.184820
H 4.674949 -0.628115 -6.696681
C -3.432566 -5.594597 -2.461732
H 5.973065 -0.148956 -4.866515
C -2.617444 -4.582281 -1.968510
C -1.374022 -2.674492 0.329273
C -1.227668 -3.917356 1.025076
C -0.292692 -3.737672 1.971978
C 0.158017 -2.383863 1.891333
C 1.099752 -1.814770 2.741593
C 1.625367 -2.612017 3.888981
C 2.985434 -2.821188 4.007160
C 3.497465 -3.552827 5.065624
C 2.669943 -4.067001 6.013741
C 1.344333 -3.879023 5.926304
C 0.805976 -3.170790 4.847298
C 1.591355 -0.515881 2.579196
H 5.595195 -1.241807 -2.865713
H 5.059595 -4.608819 2.478873
H 6.747757 -3.051553 2.726755
H 7.087341 -1.507187 1.065354
H 5.817558 -1.597490 -0.854754
H 4.414697 -3.692889 5.127866
C -1.678261 0.609221 -2.436071
C -2.832739 0.115319 -3.133550
C 2.448893 0.148860 3.510414
C -1.639348 3.692608 -4.278667
C 2.694970 1.369241 3.020149
C -1.858849 4.211390 -5.551303
C 2.004261 1.491795 1.775292
C -1.754940 3.435521 -6.643501
C 2.026613 2.621135 0.957680
C -1.415979 2.104934 -6.527218
C 2.833123 3.789914 1.442834
C -1.174056 1.580071 -5.270307
C 2.938958 6.000864 2.385203
C 2.199016 4.945056 1.855455
C 1.345272 2.728025 -0.253310
C 1.475249 3.820323 -1.173455
C 0.705416 3.558260 -2.242625
C 0.023251 2.317607 -1.982608
C -0.970864 1.766021 -2.789183
C -1.287824 2.374000 -4.118008
C -2.215498 2.146399 1.562090
C -4.997363 4.718930 2.207069
C -1.903196 5.651262 1.450174
C -1.794805 5.424399 2.825123
H 4.646137 2.937933 1.298465
C -1.050342 6.280619 3.620993
H 5.857278 4.712664 2.161500
C -0.410571 7.364624 3.013682
C -0.494711 7.567345 1.656450
H 4.781860 6.610870 2.869966
C -1.226893 6.730107 0.862318
C -3.161495 4.836139 -0.491244
C -4.115231 3.761718 -0.790406
C -4.663816 3.595855 -2.057763
C -5.482816 2.552763 -2.312990
C -5.739674 1.666319 -1.307000
C -5.182794 1.865354 -0.043927
C -2.602541 3.825299 4.490830
C -3.609479 2.733185 4.567744
C -3.923690 2.127049 5.788347
C -4.889719 1.152145 5.818195
C -5.492744 0.798304 4.661623
C -5.153908 1.439087 3.458629