119
Sn1 H50 C62 N4 O2
C 2.524201 2.899670 1.957253
N -0.954182 -1.459676 -1.145479
Sn 0.000000 0.000000 0.000000
C -2.039229 1.601898 1.714558
N 0.954182 1.459676 1.145480
H -3.359614 -3.317446 -2.129860
C 2.039229 -1.601898 -1.714558
N -1.845313 0.587934 0.791898
C 7.155080 2.932686 0.714486
H 3.359614 3.317446 2.129860
C -3.269255 -1.100630 -0.341029
N 1.845313 -0.587934 -0.791898
H -1.189520 -3.990459 -3.095410
C 3.269255 1.100630 0.341029
O 0.298755 -1.334597 1.511615
C 6.387116 3.125066 -0.406933
H 1.189520 3.990459 3.095410
C -0.317816 -2.377132 -1.975037
O -0.298755 1.334597 -1.511614
H 4.668269 2.593639 -1.351561
H -6.693568 -3.707920 1.092128
C 0.317816 2.377132 1.975037
C -2.320938 -1.768564 -1.088990
H 7.201268 1.926976 2.487626
H -4.998182 0.530156 1.247997
C 2.320938 1.768564 1.088990
C 5.419004 1.447613 1.593210
H 4.998182 -0.530156 -1.247997
C -1.331749 -3.272367 -2.490764
H -5.095323 -0.882536 -2.285728
C 1.331749 3.272367 2.490764
H 5.095323 0.882536 2.285729
C -7.155080 -2.932686 -0.714486
H 8.572239 4.339664 0.207128
H -3.881976 2.317450 2.527378
H 3.881976 -2.317450 -2.527378
C -6.387116 -3.125066 0.406933
H 8.460436 4.107919 1.787785
H -4.668269 -2.593639 1.351561
C -4.067827 0.711108 1.254274
H 9.204573 3.028558 0.872447
H -7.201268 -1.926976 -2.487626
C 4.067827 -0.711108 -1.254274
C 5.166071 2.475545 -0.551295
C -5.419004 -1.447613 -1.593210
H -2.461518 6.580924 3.384134
C 6.675056 2.082213 1.712466
H 2.461518 -6.580924 -3.384133
C -3.451990 1.686342 1.962484
H -8.572239 -4.339664 -0.207128
C 3.451990 -1.686342 -1.962484
C -1.049673 2.421894 2.255392
H -8.460436 -4.107919 -1.787785
C 1.049673 -2.421894 -2.255392
C 8.462268 3.666651 0.913245
C -1.466647 3.500302 3.226172
H -9.204573 -3.028558 -0.872447
C 1.466647 -3.500302 -3.226172
C -5.166071 -2.475545 0.551295
H 1.006235 -2.498402 -4.890517
C -6.675056 -2.082213 -1.712466
H -2.071120 4.844423 1.830675
H 2.071121 -4.844423 -1.830675
C 2.190256 -5.730134 -3.706332
H 1.532263 -4.209505 -6.386440
C -8.462268 -3.666651 -0.913245
H -1.006235 2.498402 4.890518
H 2.692457 -7.469809 -5.518177
C 2.078452 -5.555531 -5.031741
C -2.190256 5.730134 3.706332
H 1.653231 -6.863462 -6.575785
H -1.532263 4.209505 6.386441
C 1.321485 -3.330144 -4.556812
H 3.176329 -6.371401 -6.578923
C -1.930358 4.701567 2.758566
H -2.692457 7.469809 5.518178
H 0.700149 -3.796809 0.084734
C 1.930358 -4.701567 -2.758566
C -2.078452 5.555531 5.031741
H -0.700149 3.796809 -0.084734
H -1.653231 6.863462 6.575785
H 0.991572 -4.968232 1.135019
C 1.636735 -4.358711 -5.453319
C -1.321485 3.330144 4.556812
H -0.991572 4.968232 -1.135018
H -3.176329 6.371401 6.578923
H 1.645899 -3.523794 1.348423
C 2.432192 -6.663463 -6.012983
H -1.645899 3.523794 -1.348423
C -0.498535 -2.253958 2.008512
H -1.750372 -0.961901 2.994984
C 0.498535 2.253958 -2.008512
C -1.636735 4.358711 5.453319
H 1.750372 0.961901 -2.994984
C 0.850442 -4.006332 1.030409
C -0.850442 4.006332 -1.030408
C -2.432192 6.663463 6.012983
H 3.159833 2.520624 -3.919737
C -1.596412 -1.882531 2.825516
H -0.947583 -5.469817 2.272129
C 1.596412 1.882531 -2.825516
H 0.947583 5.469817 -2.272129
C -2.435858 -2.809512 3.377857
C 2.435858 2.809512 -3.377857
H 2.833586 4.838074 -3.508619
C -1.132701 -4.546012 2.392431
H -3.159833 -2.520624 3.919737
C -4.659655 -1.662532 -0.442500
C 1.132701 4.546012 -2.392431
C 4.659655 1.662532 0.442500
C -0.278593 -3.606333 1.789877
C -3.063975 -0.000317 0.514681
C 0.278593 3.606333 -1.789877
H 6.693568 3.707920 -1.092128
C 3.063975 0.000317 -0.514681
C -2.237910 -4.187283 3.155038
H -2.833586 -4.838074 3.508619
C -2.524201 -2.899670 -1.957253
C 2.237910 4.187283 -3.155038