63
Fe1 H20 C36 N4 Cl2
C -3.482793 -3.580723 -2.646326
H -2.143949 -3.824681 -0.074307
C 3.482793 3.580723 2.646326
H 2.143949 3.824681 0.074307
H 1.620111 -0.985452 3.949037
C -2.667072 -2.489629 -2.321577
H -1.734702 -5.414438 1.786285
H -3.156007 -0.633836 -5.001171
C 2.667072 2.489629 2.321577
H 1.734702 5.414438 -1.786285
C -1.833368 -2.184789 -1.170606
H -0.982180 -6.502175 3.728306
C -3.232552 -1.373835 -4.410543
H -4.500462 -2.472621 -5.548267
C 1.833368 2.184789 1.170606
H 0.982180 6.502175 -3.728306
N -1.232356 -0.970416 -1.357904
C -1.683440 -2.994011 -0.055887
H -4.690386 -4.294636 -4.116426
C -4.026391 -2.466879 -4.724719
N 1.232356 0.970416 1.357904
C 1.683440 2.994011 0.055887
C 0.084064 -4.956725 4.476248
C -0.938133 -2.730553 1.083755
N -0.238108 -1.581177 1.329205
C -4.146853 -3.557324 -3.865267
N 0.238108 1.581177 -1.329205
Cl -1.964880 1.157609 0.823125
C 0.938133 2.730553 -1.083755
C 0.506549 -3.649621 4.276112
C -0.740324 -3.652437 2.185636
C 0.740324 3.652437 -2.185636
Cl 1.964880 -1.157609 -0.823125
C -1.166059 -4.970374 2.404652
C 1.166059 4.970374 -2.404652
C -0.722774 -5.603452 3.563175
H 3.156007 0.633836 5.001171
C 0.722774 5.603452 -3.563175
H -0.356967 5.416973 -5.261400
C 3.232552 1.373835 4.410543
H 4.500462 2.472621 5.548267
H -1.053331 3.208221 -4.915346
C 4.026391 2.466879 4.724719
H 4.690386 4.294636 4.116426
C -0.101613 3.003110 -3.103995
H -1.620111 0.985452 -3.949037
C 4.146853 3.557324 3.865267
C -0.411435 1.706406 -2.538328
C 0.101613 -3.003110 3.103995
C -1.641409 -0.460184 -2.567027
C 1.641409 0.460184 2.567027
Fe 0.000000 0.000000 -0.000000
C -1.257489 0.766540 -3.098709
C 0.411435 -1.706406 2.538328
C -2.556143 -1.402000 -3.202930
C 2.556143 1.402000 3.202930
C -0.084064 4.956725 -4.476248
C 1.257489 -0.766540 3.098709
C -0.506549 3.649621 -4.276112
H 0.356967 -5.416973 5.261400
H -3.579077 -4.314352 -2.050366
H 3.579077 4.314352 2.050366
H 1.053331 -3.208221 4.915346