63
Co1 H20 C36 N4 Cl2
H -4.281757 3.564375 1.973370
C 3.552440 -3.471218 -2.574576
H 3.796472 -2.156821 -0.036952
H -0.964043 -1.623622 -3.931862
H -3.796472 2.156821 0.036952
C -3.552440 3.471218 2.574576
C 2.463591 -2.659644 -2.265266
H 5.331503 -1.773656 1.803791
H 0.627844 -3.141417 -4.948530
H -5.331503 1.773656 -1.803791
C -2.463591 2.659644 2.265266
N 0.938254 -1.207989 -1.297448
C 2.146243 -1.818770 -1.128117
H 2.476216 -4.477186 -5.490432
C 1.364831 -3.217857 -4.353675
H -6.427957 1.019886 -3.750701
C -2.146243 1.818770 1.128117
N -0.938254 1.207989 1.297448
C 4.874182 0.064633 4.491397
N 1.528568 -0.220398 1.295943
C 2.969882 -1.688858 -0.027093
C 2.460359 -4.010687 -4.662986
H 4.270231 -4.691767 -4.031375
N -1.528568 0.220398 -1.295943
C -2.969882 1.688858 0.027093
C 3.574199 0.503275 4.274654
Cl 1.065150 1.828249 -0.807368
C 2.679465 -0.930498 1.083715
C 3.536066 -4.138875 -3.790745
C -2.679465 0.930498 -1.083715
Cl -1.065150 -1.828249 0.807368
C 3.596605 -0.747587 2.190008
C -3.596605 0.747587 -2.190008
C 4.895080 -1.193339 2.416534
H 0.964043 1.623622 3.931862
C -4.895080 1.193339 -2.416534
C 5.531930 -0.754697 3.579270
H -0.627844 3.141417 4.948530
C -5.531930 0.754697 -3.579270
C -1.364831 3.217857 4.353675
H -2.476216 4.477186 5.490432
H -5.326246 -0.331394 -5.283029
C -2.460359 4.010687 4.662986
H -4.270231 4.691767 4.031375
H -3.125518 -1.056425 -4.903149
C -0.752112 -1.262927 -3.078805
C 2.957171 0.095010 3.092351
Co -0.000000 0.000000 0.000000
C -3.536066 4.138875 3.790745
C -2.957171 -0.095010 -3.092351
C 0.752112 1.262927 3.078805
C 0.443813 -1.631550 -2.518885
C 1.667744 0.415590 2.507597
C -1.667744 -0.415590 -2.507597
C -0.443813 1.631550 2.518885
C 1.386376 -2.545244 -3.150300
C -1.386376 2.545244 3.150300
C -4.874182 -0.064633 -4.491397
H 5.326246 0.331394 5.283029
H 6.427957 -1.019886 3.750701
C -3.574199 -0.503275 -4.274654
H 4.281757 -3.564375 -1.973370
H 3.125518 1.056425 4.903149