221
Ni1 H100 C112 N4 O4
H -3.471728 0.193460 -7.829551
H 6.511847 -1.321410 5.835690
H 5.396668 -0.847854 4.816697
C 5.415302 8.669094 1.474860
H 5.631745 -2.393276 5.069831
C 6.669520 8.432316 1.625377
C 7.300213 9.359060 2.622129
H -4.340364 3.057710 -4.990232
C 5.313532 10.413104 2.987661
H -4.208492 3.429426 -6.511693
C 4.616903 9.524550 2.000640
C 7.490854 7.449560 0.999952
H -4.731680 1.792348 -8.213658
C 3.222213 9.720592 1.779200
H -1.204102 -1.713494 -9.999239
C 2.469682 8.862590 -4.742310
H -1.287239 0.038154 -9.540275
C 1.558044 9.725684 -4.466906
H -2.742132 -1.036258 -9.316395
C 1.310068 10.665158 -5.610615
H -0.582010 -3.248732 -8.098871
C 1.988062 10.542950 -6.707757
H -1.470713 -2.983948 -6.831112
C 2.896833 9.634028 -6.879956
H -2.140107 -3.103610 -8.247587
C 3.199278 8.661456 -5.779154
H -7.791972 -9.728302 -3.112601
H 0.775412 -1.586194 -8.455757
H 0.425665 -0.096784 -8.106665
C 0.789746 9.888628 -3.275785
H 0.579038 -1.155920 -6.961168
C 4.204086 7.676154 -6.003743
C 1.709984 11.515522 -7.846807
H -7.393489 -12.164824 -3.884189
H -5.922828 -12.284486 -4.562700
H -6.979238 -11.176976 -5.100409
H -8.117352 -8.282174 -0.951757
H -6.787164 -7.215400 -0.633189
H -7.589863 -7.167026 -2.163601
H -5.435475 -8.699718 6.438335
H -5.239100 -8.101408 4.995747
H -3.503263 1.168578 -3.992289
H -0.530408 -1.122822 -5.528573
H 0.557537 1.397718 5.075874
H 3.432921 -1.357054 4.302583
C -1.528049 -1.120276 -2.285798
C -2.441119 -2.123400 -2.668991
C -2.441119 -2.927936 -1.568991
C -1.629819 -2.357632 -0.698197
C 0.586205 -1.153374 2.603817
C 0.179121 -2.118308 3.541023
C -0.646512 -2.897384 2.790257
C -0.669447 -2.355086 1.587903
C -3.025943 -4.358788 -1.485034
C -3.778474 -4.911270 -2.368544
C -4.142556 -6.212276 -2.161424
C -4.025017 -6.825862 -1.034856
C -3.425860 -6.184270 0.031158
C -2.803767 -5.020748 -0.194473
O 4.794644 7.821276 0.543888
C -1.129566 -4.310414 3.167413
O 2.733426 7.974036 -3.689232
C -1.065063 -4.829798 4.344286
C -1.572484 -6.072246 4.507690
C -2.386650 -6.624728 3.694101
H -6.952004 1.850906 -5.375863
C -2.508489 -6.133350 2.407342
H -5.534379 0.926708 -4.242069
C -1.887830 -4.987650 2.106314
H -6.341379 -0.045864 -5.840672
C -1.421978 -2.910114 0.560392
H -5.618949 3.449794 -5.810502
C -2.082771 -4.340966 0.842300
C -3.147782 -6.734206 1.304208
C -2.054103 -10.423360 6.790243
C 1.621114 0.987812 2.170569
C 2.330643 2.110598 2.644165
H -6.202340 2.072408 -7.739147
C 2.301975 2.930410 1.560222
C 1.615380 2.288054 0.631780
H -5.679152 0.600820 -7.849182
C -0.477372 1.018364 -2.724678
C -1.694322 -11.398478 7.902931
C -0.364134 2.166610 -3.536502
C 0.395564 2.981330 -2.752005
C 0.644974 2.299511 -1.647899
C 3.160577 4.198318 1.359122
C 3.709566 4.842456 2.338236
C 4.280056 6.051806 2.056307
C 4.262855 6.601742 0.897541
C 3.440088 6.095088 -0.084431
C 2.945568 4.865370 0.075548
C 1.073558 4.295066 -3.195147
C 0.951720 4.860278 -4.357906
C 1.473474 6.120548 -4.505339
C 2.481149 6.082358 -2.441133
C 1.861924 4.941750 -2.146707
C 1.408972 2.846392 -0.624211
C 2.086966 4.269606 -0.905353
C -4.281595 -9.771584 -1.976948
C -4.856385 -10.749248 -2.959211
C -2.902671 -9.896338 -1.624878
H 8.208983 9.287772 2.813931
C -2.680496 -8.737908 4.865683
C -1.528049 -9.285298 4.713002
C -1.206969 -10.242594 5.825966
H 6.612185 11.815950 4.559491
H 7.975340 11.660644 3.792193
C -3.197950 -9.809774 6.849307
H 7.604092 10.660066 4.950328
C -3.586399 -8.839748 5.772676
C -0.569109 -9.112170 3.671704
C -4.849218 -8.185426 5.871775
H 3.484523 7.520848 -1.485119
C 1.780220 0.959806 6.703654
C 2.802229 0.203644 7.017832
C 3.444388 -0.636536 6.249761
C 2.985703 -0.758744 4.858668
C 1.285700 1.830538 7.849633
C 1.258466 3.269028 7.437087
C -0.096090 1.428270 8.254768
C 2.184437 1.695600 9.035654
C 4.636970 -1.519998 6.594200
C 5.314965 -1.026074 7.833058
C 4.195486 -2.930482 6.827874
C 5.633178 -1.514906 5.477229
C -1.208402 -0.063686 -3.061431
C -1.850562 0.005056 -4.411360
C -3.080412 0.725574 -4.692126
C -3.689604 0.781586 -6.025920
C -3.074679 0.142540 -6.990537
C -1.968100 -0.549972 -6.915927
C -1.320207 -0.636536 -5.602410
H 4.837645 11.080156 3.429803
C -4.976790 1.570846 -6.208573
H 8.452660 7.747442 1.081448
H 7.207042 7.383364 0.029314
C -4.766081 3.006790 -5.851190
C -1.182601 -1.329048 -7.962282
C -1.649887 -0.972608 -9.339757
C -1.364642 -2.798090 -7.767722
H 2.833763 10.189056 2.524569
C 0.276592 -1.015890 -7.861970
H 3.098941 10.237430 0.977044
C 1.381737 -0.109514 2.909243
H 2.790762 8.865136 1.678654
C 1.869091 -0.002582 4.322278
H 0.657874 11.327118 -5.538324
C 1.282833 0.870696 5.324839
H 3.375586 9.588200 -7.677303
H 0.015715 10.598962 -3.510254
H 1.466307 10.245068 -2.522324
H 0.394130 8.916056 -3.045402
H 1.922126 11.013960 -8.730027
H 2.327776 12.335334 -7.714629
C -5.154530 -8.918674 -1.577821
H 0.709476 11.782852 -7.786027
H 4.839079 8.002042 -6.646800
H 4.649871 7.497934 -5.171225
C -6.104869 -10.660138 -3.306140
H 3.801303 6.866526 -6.328346
C -6.904702 -9.753762 -2.837757
C -6.397281 -8.743000 -1.851161
C -6.653858 -11.668354 -4.307253
N -1.043562 -1.230009 -1.122557
C -7.306052 -7.762790 -1.358963
N 0.060150 -1.243757 1.455859
N 1.192529 1.069793 0.983817
N 0.088818 1.083796 -1.595398
O -4.648543 -7.991930 -0.648622
O -3.014476 -7.839170 3.838144
H -3.778474 -9.980356 7.557456
C -6.059001 1.018364 -5.335431
H -2.034036 -10.922376 8.853803
C -5.436909 1.502104 -7.631062
H -0.589177 -11.523232 7.848144
H -2.249045 -12.330314 7.670229
Ni -0.070289 0.003528 -0.007083
H -2.905538 -2.215056 -3.469672
H 0.452899 -2.222694 4.423881
H -3.971982 -4.478450 -3.167161
H -4.562539 -6.665464 -2.856792
H -0.642212 -4.379156 5.042449
H -1.378976 -6.517796 5.300307
H -3.465995 -7.597300 1.444037
H 2.714792 2.245536 3.480605
H -0.700981 2.314278 -4.390835
H 3.766902 4.465648 3.188122
H 4.770276 6.464258 2.730136
H 0.429965 4.475832 -5.024473
H 1.381737 6.533000 -5.332757
H -4.315996 -11.411208 -3.330480
H -2.486988 -10.611764 -2.215700
H -2.849636 -10.156030 -0.641183
H -2.469787 -8.992508 -1.784934
H -0.401402 -10.708512 5.819172
H 0.061583 -9.845418 3.686456
C 6.579217 10.260344 3.217356
H -0.103257 -8.274536 3.813782
H -1.029228 -9.089256 2.821215
C 7.255778 11.184542 4.220817
H -4.728813 -7.309602 6.251137
C 2.115634 6.746864 -3.587410
C 3.133342 6.667938 -1.339424
H 7.338914 6.576282 1.483853
H 3.107541 0.277478 7.893427
H 0.934519 3.806234 8.167328
H 2.144302 3.554180 7.198534
H 0.673642 3.365776 6.681044
H -0.292465 1.812716 9.123356
H -0.139092 0.463336 8.304853
H -0.736816 1.749066 7.602236
H 1.857623 2.253174 9.747101
H 3.067406 1.983298 8.786307
H 2.214538 0.781586 9.326995
H 5.932757 -1.685488 8.163236
H 5.796585 -0.221538 7.620505
H 4.658471 -0.837670 8.511158
H 5.054088 -3.447320 7.250775
H 3.372719 -2.866832 7.525902
H 3.898774 -3.342934 5.868661