294
Zn2 H149 C134 N9
Zn -1.852190 -0.308171 5.416502
Zn 1.852190 -0.308171 -5.416502
H -9.186334 1.907606 4.567633
H 9.186334 1.907606 -4.567633
C -10.446190 0.173334 2.043885
C 10.446190 0.173334 -2.043885
H -11.367406 -0.902151 4.343214
H 5.401025 -2.323634 9.027538
H 11.367406 -0.902151 -4.343214
H -5.401025 -2.323634 -9.027538
C -8.448787 -4.521736 3.722316
C -9.493406 1.749069 3.673239
C 8.448787 -4.521736 -3.722316
C 9.493406 1.749069 -3.673239
H 1.954356 0.403642 -0.392538
H -1.954356 0.403642 0.392538
H -10.741783 -0.725403 1.886609
H 4.531465 -3.121678 7.994303
C -8.262248 -5.200877 5.062950
C 8.262248 -5.200877 -5.062950
H 10.741783 -0.725403 -1.886609
H -4.531465 -3.121678 -7.994303
H 1.957226 2.697081 -0.397902
H -1.957226 2.697081 0.397902
H 5.983601 -3.604789 8.338203
H -5.983601 -3.604789 -8.338203
C -7.504612 -5.173026 2.697962
C 7.504612 -5.173026 -2.697962
H -0.000000 3.870045 0.000000
H 7.883430 -1.181734 6.839187
H -7.883430 -1.181734 -6.839187
C -0.000000 0.159408 0.000000
C -9.898052 -4.809889 3.264051
C 9.898052 -4.809889 -3.264051
C 1.163143 0.864258 -0.233112
C -1.163143 0.864258 0.233112
H 7.326682 -1.151741 8.303926
H -7.326682 -1.151741 -8.303926
C 1.165152 2.236465 -0.234894
C -1.165152 2.236465 0.234894
H 7.800205 -2.506809 7.670448
H -7.800205 -2.506809 -7.670448
C -11.120601 0.022294 4.428418
C 11.120601 0.022294 -4.428418
C -0.000000 2.940243 0.000000
H 1.630065 1.239178 8.844917
H 6.109873 -3.657278 6.015877
H -1.630065 1.239178 -8.844917
H -6.109873 -3.657278 -6.015877
C -6.307892 0.399357 13.325437
H -0.507960 1.596958 9.980244
H -0.519440 -4.124321 1.123739
H 0.519440 -4.124321 -1.123739
H 4.901674 -2.767110 5.561311
H 0.507960 1.596958 -9.980244
H -4.901674 -2.767110 -5.561311
H -5.601913 0.774277 8.719133
H 6.350939 -2.427540 5.072101
H 5.601913 0.774277 -8.719133
H -6.350939 -2.427540 -5.072101
N -0.854349 0.429350 7.027638
C -0.451138 -2.069759 1.039485
C 0.451138 -2.069759 -1.039485
N 0.854349 0.429350 -7.027638
H -5.312060 -1.890869 1.972686
H 5.312060 -1.890869 -1.972686
C -0.286696 -3.369125 0.632511
C 0.286696 -3.369125 -0.632511
C -3.997677 5.023727 13.157068
H -3.156816 -2.226154 0.834769
H 3.156816 -2.226154 -0.834769
C -5.848145 -0.008770 6.859237
C 5.848145 -0.008770 -6.859237
H 1.914178 -1.454890 2.109197
H 6.546088 0.721788 7.153736
H -1.914178 -1.454890 -2.109197
H -6.546088 0.721788 -7.153736
C 5.421113 -2.835667 8.215637
C -5.421113 -2.835667 -8.215637
H 3.099419 -0.665416 4.110994
H 2.889921 2.299666 6.613530
H -3.099419 -0.665416 -4.110994
H -2.889921 2.299666 -6.613530
C 7.375469 -1.664846 7.492641
C -7.375469 -1.664846 -7.492641
H -10.225213 2.339300 3.476012
N -2.811288 -1.076757 3.796383
C 5.829204 -2.762826 5.805555
N 2.811288 -1.076757 -3.796383
C -5.829204 -2.762826 -5.805555
H 4.465459 2.570679 -13.140113
N -0.048787 -0.642921 4.477389
C -4.186799 -1.218155 3.644167
C -4.043594 -0.058046 14.237220
N 0.048787 -0.642921 -4.477389
H -2.734950 3.345157 9.599968
C 4.186799 -1.218155 -3.644167
H 2.734950 3.345157 -9.599968
C -4.468903 -1.720548 2.326782
C 4.468903 -1.720548 -2.326782
H -6.749846 -0.191946 6.765980
H 6.749846 -0.191946 -6.765980
N -3.627468 -0.031266 6.363025
C -3.281940 -1.901581 1.696498
C 3.281940 -1.901581 -1.696498
N 3.627468 -0.031266 -6.363025
H 3.366313 -1.690554 6.670128
H -3.366313 -1.690554 -6.670128
N -0.000000 -1.266359 0.000000
C -2.252245 -1.497738 2.613914
C 0.487011 0.476483 7.213596
C 2.252245 -1.497738 -2.613914
C -0.487011 0.476483 -7.213596
H -7.318073 0.587888 4.202838
H 7.318073 0.587888 -4.202838
C -0.884195 -1.527732 2.346043
C 0.786334 1.052789 8.504717
C 0.884195 -1.527732 -2.346043
C -0.786334 1.052789 -8.504717
H 5.472770 4.752714 5.692447
H -5.472770 4.752714 -5.692447
C 0.136891 -1.135673 3.220363
C -0.389436 1.268100 9.117042
C -0.136891 -1.135673 -3.220363
C 0.389436 1.268100 -9.117042
H -3.905842 -0.394402 10.486282
H 5.527297 3.380506 4.934553
H 3.905842 -0.394402 -10.486282
H -5.527297 3.380506 -4.934553
C -1.443526 0.895322 8.189977
C 1.530195 -1.179592 2.908743
C -1.530195 -1.179592 -2.908743
C 1.443526 0.895322 -8.189977
H 4.164127 3.912893 5.494663
H -4.164127 3.912893 -5.494663
C -2.810714 0.925316 8.482380
C 2.178490 -0.738258 4.010271
C -2.178490 -0.738258 -4.010271
C 2.810714 0.925316 -8.482380
H 4.795490 3.366581 8.965700
H -4.795490 3.366581 -8.965700
C -3.815442 0.450774 7.616944
C 1.190980 -0.404043 4.990340
C -1.190980 -0.404043 -4.990340
C 3.815442 0.450774 -7.616944
H -6.224667 -3.277002 4.304752
H 5.036556 4.751642 8.268534
H 6.224667 -3.277002 -4.304752
H -5.036556 4.751642 -8.268534
C -5.212477 0.476483 7.926166
C 1.471076 0.119774 6.261172
C -1.471076 0.119774 -6.261172
C 5.212477 0.476483 -7.926166
H -10.021455 -2.287213 3.440438
H 3.722173 3.947171 7.977902
H 10.021455 -2.287213 -3.440438
H -3.722173 3.947171 -7.977902
H 7.016740 2.766709 8.118722
H -7.016740 2.766709 -8.118722
H 7.349641 2.797774 6.589001
H -7.349641 2.797774 -6.589001
C 2.902262 0.277240 6.608715
C -2.902262 0.277240 -6.608715
H 7.117184 4.138916 7.368719
H -7.117184 4.138916 -7.368719
C 5.631759 0.610383 7.017988
C -5.631759 0.610383 -7.017988
C 4.806108 1.722289 6.898991
C -4.806108 1.722289 -6.898991
C -4.872689 -0.335486 5.870623
C 3.441216 1.555182 6.694376
C 4.872689 -0.335486 -5.870623
C -3.441216 1.555182 -6.694376
H 6.287803 1.234893 -13.798867
C -5.112607 -0.909650 4.611506
C -3.244920 1.403071 9.838432
C 5.112607 -0.909650 -4.611506
C 3.244920 1.403071 -9.838432
H -4.465459 2.570679 13.140113
H -6.815852 0.498978 12.516987
H 6.815852 0.498978 -12.516987
C -3.824339 0.501121 10.723595
C 3.824339 0.501121 -10.723595
C 3.728199 -0.834666 6.728162
C -4.281216 0.939242 11.961231
C -3.728199 -0.834666 -6.728162
C 4.281216 0.939242 -11.961231
H -5.429723 -2.029054 13.073033
H 3.874274 0.837478 -14.540735
H 5.429723 -2.029054 -13.073033
C 5.092805 -0.668630 6.932820
C -4.158961 2.278242 12.313748
C -5.092805 -0.668630 -6.932820
C 4.158961 2.278242 -12.313748
H -5.423983 -1.482742 11.602374
H 5.423983 -1.482742 -11.602374
C -3.579542 3.179121 11.428585
C 3.579542 3.179121 -11.428585
H -4.069422 -1.808386 12.325931
H 3.960369 5.971739 -13.305836
H 4.069422 -1.808386 -12.325931
C -3.122665 2.742071 10.190949
C 3.122665 2.742071 -10.190949
H 4.913153 4.736646 -13.153182
H 6.715408 -0.271214 -13.877966
H 3.521284 4.572752 -13.856332
H -1.578408 4.759141 10.876115
H 1.578408 4.759141 -10.876115
H -1.807994 5.965312 11.852690
H 1.807994 5.965312 -11.852690
H 3.208473 -0.490810 -14.041105
H -1.452135 4.550257 12.425566
H 1.452135 4.550257 -12.425566
H -3.825487 5.471489 9.906995
H 3.825487 5.471489 -9.906995
H 4.502767 -0.545442 -14.926247
H -5.102562 5.316165 10.804345
H 5.102562 5.316165 -10.804345
H -4.112470 6.507339 11.050032
H 4.112470 6.507339 -11.050032
C 5.369457 3.151270 6.965694
C -6.556419 -1.282427 4.307291
C 6.556419 -1.282427 -4.307291
C -5.369457 3.151270 -6.965694
C -6.877266 -2.627854 4.174528
C 5.108302 3.864689 5.652064
C 6.877266 -2.627854 -4.174528
C -5.108302 3.864689 -5.652064
C -8.175292 -3.004917 3.849377
C 4.663478 3.874330 8.160395
C 8.175292 -3.004917 -3.849377
C -4.663478 3.874330 -8.160395
C -9.152470 -2.035481 3.657481
C 6.850290 3.219826 7.289495
C 9.152470 -2.035481 -3.657481
C -6.850290 3.219826 -7.289495
C -8.831622 -0.688982 3.790245
C 8.831622 -0.688982 -3.790245
C -7.533597 -0.312991 4.115396
C 7.533597 -0.312991 -4.115396
H -6.287803 1.234893 13.798867
C 6.023778 -1.897296 6.986657
C -6.023778 -1.897296 -6.986657
C 6.307892 0.399357 -13.325437
H -8.523402 -6.122109 4.995687
H 8.523402 -6.122109 -4.995687
C -3.354834 4.690584 11.808606
C 3.354834 4.690584 -11.808606
H -7.338162 -5.148388 5.320536
H -3.874274 0.837478 14.540735
H 7.338162 -5.148388 -5.320536
C 3.997677 5.023727 -13.157068
H -8.804646 -4.762756 5.723556
H -10.885274 0.209754 5.340999
H 8.804646 -4.762756 -5.723556
H 10.885274 0.209754 -5.340999
C -1.925658 5.020514 11.737215
C 1.925658 5.020514 -11.737215
H -7.682541 -6.115682 2.654681
H -11.863887 0.573962 4.171264
H -3.960369 5.971739 13.305836
H 7.682541 -6.115682 -2.654681
C -4.901674 -0.017340 12.987707
C -4.181346 5.585036 10.789118
C 4.901674 -0.017340 -12.987707
H 11.863887 0.573962 -4.171264
H -7.648103 -4.778824 1.835690
H -6.715408 -0.271214 13.877966
H -4.913153 4.736646 13.153182
H 7.648103 -4.778824 -1.835690
C -4.961940 -1.474172 12.445843
C 4.181346 5.585036 -10.789118
C 4.961940 -1.474172 -12.445843
H -6.594875 -5.032698 2.964611
H -3.521284 4.572752 13.856332
H 6.594875 -5.032698 -2.964611
H -10.515066 -4.410331 3.884582
H -11.169388 0.782846 1.886793
H 10.515066 -4.410331 -3.884582
H 11.169388 0.782846 -1.886793
C 4.043594 -0.058046 -14.237220
H -10.038674 -4.438182 2.387537
H -9.720122 0.380075 1.451838
H -3.208473 -0.490810 14.041105
H 10.038674 -4.438182 -2.387537
H 9.720122 0.380075 -1.451838
H -10.044414 -5.757901 3.236739
H -8.778817 1.912962 3.056284
H 10.044414 -5.757901 -3.236739
H 8.778817 1.912962 -3.056284
C -9.954301 0.310447 3.543287
C 9.954301 0.310447 -3.543287
H -4.502767 -0.545442 14.926247
H 10.225213 2.339300 -3.476012