168
Zn1 H51 C111 N5
H 9.901748 3.757284 3.929268
H 9.681224 1.431485 3.658296
H 11.006023 1.823606 4.467375
H 9.727447 1.266558 5.249502
C 7.491216 3.422382 7.133636
H 2.129896 8.058835 1.887857
C 7.511816 1.993581 7.725880
H 2.361689 5.913108 2.683937
C 5.845750 3.486334 5.104397
C 7.175985 3.419017 5.680312
C 2.755113 2.429963 -0.030149
C 8.024690 3.333188 4.621801
C 1.423164 2.138481 -0.542541
C 7.207914 3.311310 3.415727
C 0.978084 1.632426 -1.770127
C 7.689518 3.109022 2.128377
C -0.378454 1.527411 -1.961969
C 6.948173 2.868701 0.986669
C -1.032756 0.997964 -3.205272
C 7.485855 2.441238 -0.297679
C -1.895055 2.092873 -3.751923
C 6.411048 2.196037 -1.097630
C -1.846201 2.648238 -5.001194
C 2.173616 3.504846 7.754366
C -2.668544 3.698382 -5.328006
C 2.209288 2.146727 8.476095
C -3.566763 4.189795 -4.393436
C 3.561688 1.487021 8.459930
C -3.648800 3.642845 -3.131086
C 3.628688 0.095244 9.225096
C -2.809274 2.597750 -2.801326
C -2.720500 1.884191 -1.459460
C -1.287269 1.955547 -0.979775
C -0.857648 2.387721 0.248765
C 0.516124 2.461602 0.485735
C 1.326933 2.850189 1.628749
C 0.865106 3.048774 2.920234
C 1.626006 3.259139 4.073739
C 1.110828 3.291114 5.424550
C 2.189568 3.437529 6.264989
C 3.356638 3.506529 5.408446
C 4.674483 3.575528 5.869604
C 5.228597 2.484994 -0.326514
C 3.924626 2.279173 -0.765046
C -3.030837 0.342970 -1.750052
C -1.965940 -0.197585 -2.788285
C -2.595121 -0.838778 -4.042936
C -3.904123 -0.712559 -4.418322
C -4.885880 -0.195902 -3.441914
C -4.495674 0.175688 -2.181466
C -5.293525 -0.216097 -1.044704
C -4.419194 -0.559413 0.047241
C -3.062243 -0.401779 -0.418967
C -2.102331 -1.294851 -0.011552
C -1.111895 -1.804776 -0.982939
C -1.146059 -1.392460 -2.272178
C -0.973448 -2.361824 -3.322936
C -1.859962 -2.026922 -4.411323
C -2.459920 -3.009749 -5.170458
C -3.843979 -2.886896 -5.572138
C -4.536998 -1.764386 -5.179765
C -5.892912 -1.880508 -4.708619
C -6.106237 -0.931339 -3.639900
C -6.913595 -1.246046 -2.546231
C -6.497986 -0.892632 -1.218858
C -6.006193 -2.299556 0.729189
C -4.773167 -1.570850 0.919619
C -3.766921 -2.503189 1.349394
C -2.459529 -2.371921 0.883448
C -1.703845 -3.548284 0.493958
C -0.885777 -3.193188 -0.636912
C -0.672940 -4.127210 -1.656627
C -0.713764 -3.701430 -3.024338
C -1.362976 -4.743160 -3.813920
C -2.199622 -4.409941 -4.860458
C -3.440655 -5.138647 -5.046786
C -4.452388 -4.187795 -5.475471
C -5.758283 -4.324112 -5.030444
C -5.772070 -3.687967 1.040510
C 5.121527 6.118425 1.280115
C -4.360328 -3.814186 1.438578
C 5.029917 7.404178 0.761472
C -3.638627 -4.943427 1.057451
C 3.904593 8.153079 0.995130
C -2.275856 -4.805428 0.575903
C 8.927693 2.208995 -0.595971
C -6.848513 -1.969703 -0.316775
C -2.075886 -5.768060 -0.486006
C -1.284702 -5.448304 -1.577941
C 9.520318 3.198554 4.651958
C -1.704013 -5.838742 -2.901475
C 9.461592 0.889583 -0.031382
C -2.897288 -6.503497 -3.092247
C 6.414579 1.675508 -2.503161
C -3.786134 -6.165230 -4.178906
C 10.912422 0.640511 -0.350746
C -5.151400 -6.294815 -3.711101
C 11.475596 -0.579608 0.356933
C 10.027473 1.811825 4.493770
C -4.279833 -5.985157 0.272769
C -3.319900 -6.473204 -0.683881
N 5.888650 3.431639 3.736450
C -3.708011 -6.851862 -1.964974
N 5.559519 2.885530 0.945840
C -6.495125 -3.152797 -4.627252
C -5.121749 -6.718911 -2.329748
C -7.329517 -3.484333 -3.493293
C -0.327997 3.153115 5.801935
C -7.542877 -2.575555 -2.475054
C -7.502888 -3.003017 -1.101330
C -7.258879 -4.339258 -0.784568
C -6.374210 -4.685940 0.306951
C 2.927718 7.577519 1.705437
C 3.071365 6.291766 2.178519
C -6.122640 -5.386036 -4.131331
N 4.156623 5.556497 1.959127
C -7.095406 -4.886208 -3.184396
C -7.047388 -5.286744 -1.867534
C -6.041154 -6.232546 -1.414980
C -5.617017 -5.853889 -0.090232
N 2.674384 2.864325 1.257629
N 2.998178 3.410434 4.070836
H 8.374224 3.846479 7.274090
H 6.814699 3.962601 7.612045
H 8.163642 1.446631 7.238051
H 7.763534 2.035654 8.670421
H 6.622322 1.591362 7.641869
H 4.788004 3.696699 6.803991
H 2.953478 4.038332 8.053335
H 1.357949 3.987845 8.036960
H 1.930700 2.276312 9.416900
H 4.219701 2.102971 8.867525
H 2.889654 -0.476950 8.930142
H 9.849871 3.558699 5.512893
H 4.482585 -0.345682 9.028443
H 3.556104 0.250073 10.189335
H 8.631792 3.139651 2.021831
Zn 4.275160 3.479097 2.459954
H 1.591998 1.370899 -2.446912
H -0.350316 0.707828 -3.875630
H -1.239228 2.306605 -5.645693
H -2.621003 4.087137 -6.194448
H -4.134538 4.916818 -4.626642
H -4.273792 3.977747 -2.497925
H 9.056122 2.212361 -1.578788
H -3.355620 2.271263 -0.789901
H 9.457395 2.956213 -0.220094
H -1.480952 2.631409 0.921386
H 8.922550 0.142366 -0.395573
H -0.077580 3.042042 3.034224
H 9.346344 0.891266 0.951933
H 5.920173 5.625329 1.134266
H 11.010555 0.521023 -1.327732
H 5.744246 7.762641 0.246575
H 11.439665 1.436533 -0.086957
H 3.822996 2.005361 -1.669144
H 3.823142 9.039979 0.666063
H -0.459636 3.484651 6.715320
H 10.928850 -1.363850 0.143556
H -0.880274 3.674821 5.182941
H 12.396792 -0.734437 0.059757
H -0.589009 2.210678 5.757408
H 6.326329 0.699413 -2.490890
H 5.664210 2.064264 -2.998057
H 11.467221 -0.429828 1.325437
H 7.257069 1.921215 -2.939977
H 1.553619 1.540875 8.047595
H 3.831423 1.342290 7.517814