11
H5 C5 N1
C 0.044779 -1.133595 -0.762195
H 0.995232 0.074795 -2.045361
H 0.086399 -1.906012 -1.312800
H -0.927864 -2.005543 0.796028
C 0.583565 0.052366 -1.190111
H -1.022327 -0.042960 2.087174
N 0.561292 1.180431 -0.465127
C -0.556160 -1.192473 0.474225
C -0.606738 -0.042960 1.231714
H -0.081664 1.895792 1.252844
C -0.040273 1.106553 0.723510