136
Co1 B18 H59 C52 N4 O2
H -0.923479 1.482594 -4.615212
C 1.092700 5.849342 2.073738
H -0.541072 2.461082 -6.691114
C 2.075536 6.124104 0.847094
H 0.262628 1.165777 -8.455590
H 0.792892 -1.071568 -8.116662
C 0.235926 2.517156 0.599620
H 0.495221 -2.034636 -6.020155
C 1.180880 2.906869 -0.688333
C 1.767334 -1.621091 1.605916
C 2.985217 0.087758 2.588851
C 2.951378 1.535864 2.964684
N 0.348645 -3.406622 0.786503
N -2.579505 -2.454348 0.654459
N -2.046330 -1.204463 -1.897006
N 0.681744 -2.376406 -2.061440
O 3.097031 2.301272 1.675850
H -1.235970 4.816182 -2.841078
O 1.727973 -0.268311 2.020437
B 3.686170 6.361016 1.374821
B 4.161087 4.818986 2.041012
B 3.640952 6.143730 3.100007
H 3.767525 -1.848190 -2.526833
H 3.997296 -4.323849 -2.668000
H 6.219702 -4.992529 -2.579337
H 7.326273 -5.149536 -0.543913
H 6.188963 -4.663096 1.437607
H 3.970955 -3.981799 1.372838
C -0.257013 -0.373449 -5.105797
C -0.564289 0.961108 -5.324486
C -0.350734 1.540070 -6.557986
C 0.138971 0.774662 -7.598737
H 3.577087 4.555439 -0.408852
C 0.450589 -0.551483 -7.399180
C 0.265304 -1.123436 -6.157476
H 3.403092 3.984888 4.339012
H 4.433635 7.042312 0.893424
H 5.222669 4.461515 2.015976
H 4.360523 6.638581 3.800073
H 3.709953 -0.073454 1.932995
H 3.162255 -0.464569 3.390208
H 3.692513 1.751748 3.583749
Co 1.119025 4.346003 0.729373
B 3.154289 4.854032 0.584367
B 2.805403 3.647043 1.846120
B 1.406580 4.378806 2.784191
B 3.075316 4.537215 3.422218
B 1.960183 5.929247 3.493859
B 2.357043 7.038107 2.257075
B -0.914809 3.777415 0.880489
B -0.593888 4.999824 -0.368694
B 0.751823 4.402638 -1.314190
B -0.866406 4.228809 -1.962546
B 0.303384 2.919486 -2.148902
B -0.011863 1.699880 -0.914591
B -1.379145 2.264824 0.059469
B -1.914410 3.823676 -0.590230
B -1.354391 2.531174 -1.690829
H -2.167968 -2.700512 -0.059389
H 0.014109 -2.812660 -1.802584
H 2.105599 -6.063539 0.646973
H 0.133119 -6.285031 2.134354
H -3.647276 -2.603785 3.630619
H -4.774604 -0.865497 2.286384
H -4.798498 -0.032801 -3.125827
H -2.996545 -0.230461 -4.825714
H 2.325343 -0.679051 -4.157094
H 2.210076 8.144163 2.354665
H -0.068307 -4.832719 4.369002
H -0.630436 -6.181294 6.187803
H -4.391360 -6.558390 4.755751
H -3.862470 -5.167760 2.959660
H -6.464628 -1.242593 0.555803
H -8.204968 0.274204 0.922278
H -8.038384 2.475101 0.175522
H -6.126947 3.180229 -0.930791
H -4.335033 1.726515 -1.203982
C 3.750080 -4.063106 -0.658213
C 4.438850 -4.382726 -1.829583
C 5.759074 -4.782252 -1.775668
C 6.415638 -4.880382 -0.571180
C 5.742021 -4.585994 0.602531
C 4.426080 -4.182263 0.562541
H 0.035555 6.222233 2.098517
H 1.731387 6.715683 -0.039386
H 0.599473 1.901746 1.461531
H 2.245469 2.563417 -0.751023
H 0.655461 3.739565 3.314420
H 1.534456 6.323166 4.451116
H -2.793323 -7.040625 6.387899
H -1.354970 4.042364 1.874153
H -0.817195 6.086254 -0.218585
H 1.461670 5.114775 -1.807260
H 0.725078 2.643322 -3.148631
H 0.200174 0.613450 -1.084841
H -2.089125 1.542873 0.537211
H -2.987814 4.140493 -0.558496
H -2.053421 1.992866 -2.382383
H 1.967807 -2.211268 2.376085
H 2.467132 -1.751463 0.917655
H 2.093648 1.758758 3.407392
H -0.327002 -1.686978 1.669309
H 0.238283 -1.452870 0.183954
C 0.382311 -1.946319 1.029544
C 1.447836 -4.085535 0.266234
C 1.458261 -5.390653 0.817762
C 0.373311 -5.508408 1.641742
C -0.335807 -4.281794 1.638257
C -1.546861 -4.007312 2.300684
C -2.480951 -3.028544 1.907707
C -3.465578 -2.399115 2.720538
C -4.097985 -1.457075 1.976752
C -3.570681 -1.508944 0.645115
C -4.009999 -0.788395 -0.478433
C -3.333254 -0.801012 -1.725686
C -3.910938 -0.341207 -2.983013
C -2.933212 -0.442139 -3.902607
C -1.756666 -0.944000 -3.202661
C -0.475454 -1.000915 -3.772037
C 0.666797 -1.538382 -3.134405
C 2.026119 -1.238388 -3.449295
C 2.820236 -1.891647 -2.563629
C 1.980058 -2.657055 -1.696708
C 2.350757 -3.575264 -0.701222
C -1.901422 -4.864961 3.468167
C -0.950645 -5.176171 4.445987
C -1.284180 -5.979428 5.527690
C -2.566080 -6.491102 5.647523
C -3.515817 -6.196714 4.680184
C -3.198998 -5.379438 3.605226
C -5.199692 0.093365 -0.337300
C -6.374867 -0.339805 0.276061
C -7.416372 0.561582 0.475437
C -7.319692 1.869503 0.034827
C -6.186971 2.288655 -0.605823
C -5.126714 1.419511 -0.778966