75
P1 H30 C41 N3
C -2.458313 0.083828 2.634970
C 4.679040 -3.634625 -4.315950
C 5.131599 -3.245494 -3.086600
C -2.911743 -0.899451 3.545930
P -1.009601 -0.574479 1.723193
C -2.190963 -2.080513 3.548038
C 4.277405 -2.590242 -2.184301
H 0.012014 0.006645 -0.570137
C 2.512861 -2.736568 -3.801257
H 1.351380 -5.253861 1.119879
H -0.401305 -4.024560 2.883527
C -1.086335 -2.147244 2.663923
C -0.938621 3.453351 -2.834966
H 2.594827 -4.448263 -0.866704
C -0.317944 -3.240670 2.353553
C 0.592406 -3.242278 1.272363
C -0.932168 4.819330 -2.602387
C 1.338300 -4.374296 0.760640
H 2.689001 0.184327 -3.504336
C -1.089125 5.721406 -3.659973
C 3.364264 -3.410312 -4.669781
C 2.007983 -3.940141 -0.319117
H 1.340916 2.233698 -3.595694
C -1.299448 3.893133 -5.172693
C -1.260034 5.249464 -4.952576
C 1.658492 -2.534767 -0.488005
H 0.960731 2.209578 5.203002
C -1.148420 3.005528 -4.135845
H -1.348279 5.856477 -5.678256
N 0.808658 -2.145636 0.515972
C 2.010947 -1.721129 -1.564189
H -4.196174 3.541789 0.951572
H -3.029461 4.123878 -1.149674
C 1.503105 -0.426705 -1.869500
N 0.463527 0.275178 -1.278169
H -3.807270 1.554326 2.824961
C 1.967871 0.394169 -2.924671
H -4.224077 -0.199176 5.001338
N -1.578133 1.736028 0.456193
C 1.225117 1.522167 -2.977877
H -4.944335 -1.147080 3.911022
C 0.243264 1.464279 -1.957123
C -0.764573 2.456403 -1.727442
H -4.609494 -2.738176 5.508295
H -3.339887 -3.771304 3.901469
C -1.631150 2.553686 -0.641455
H -2.167942 -3.568698 4.992159
C -2.778679 3.446919 -0.532589
H 1.871081 -0.150133 1.277058
C -3.412610 3.130951 0.605542
C -2.673692 2.046368 1.201275
H 3.560984 1.034145 2.377704
C -3.075153 1.257654 2.297104
H 3.118017 2.237718 4.290324
C -4.118219 -1.007186 4.438185
C 2.970128 -2.326534 -2.552145
C -3.784947 -2.235683 5.286678
H -0.746611 1.026909 4.157113
C -2.837276 -3.103188 4.430742
H 1.616462 -2.554867 -4.061814
C 0.367260 0.320202 2.580497
H 3.039538 -3.717436 -5.508913
H 5.270070 -4.059132 -4.926748
C 1.669653 0.329045 2.073168
H -3.341631 -1.965542 6.129093
C 2.680456 1.041381 2.731137
H 4.595155 -2.331357 -1.326641
C 2.425488 1.743264 3.866441
C 1.140709 1.732008 4.402491
C 0.123628 1.030125 3.777649
H 6.032183 -3.419960 -2.840324
H -0.819857 5.146553 -1.718330
H -1.077964 6.656447 -3.494105
H -1.433733 3.565909 -6.054488
H -1.187834 2.072096 -4.309562