74
Ni1 H26 C42 Br1 N4
C 1.597190 -3.773237 -6.340300
C 1.342184 -2.870590 -7.278181
C 0.806987 -1.666230 -6.963505
C 0.616519 -1.315893 -5.637727
H 2.746290 -3.483991 -0.710852
C 1.493299 3.043992 2.840079
H 2.359059 -2.679837 -2.621048
C -4.119977 0.683894 -0.629163
C 2.033218 4.166067 2.249078
H -1.935113 -1.708619 -4.364352
H -3.680800 -0.933141 -2.822174
C -6.884114 1.263633 -0.556653
C 1.505891 4.186015 4.941892
H -4.585914 -0.323480 1.066316
C -6.081318 1.610229 -1.495432
C 1.222552 3.071420 4.193984
H -6.832168 0.001922 0.934287
C 4.898098 -4.677131 3.393562
C -4.667767 1.501762 -1.614625
C 3.942613 -3.469030 1.510132
C 5.787470 -5.278064 2.531727
C 3.974096 -3.779471 2.879352
C 1.616079 -2.217293 -2.306793
C 5.796915 -5.001286 1.219594
C 0.652724 -1.900619 -3.221014
C 4.879209 -4.119834 0.704970
C -0.560915 -1.325867 -2.807288
C -1.804462 -1.398178 -3.497417
H 2.732123 6.017491 2.626876
N 1.592467 -1.915580 -0.965600
C -2.764669 -0.933141 -2.660818
H 2.223686 6.048659 4.868386
N -0.738789 -0.748622 -1.573756
C -2.120858 -0.448155 -1.498823
C -2.659203 0.382181 -0.566861
H 1.540522 -4.123574 -4.348213
Ni 0.526323 -0.553381 -0.190257
C -1.881593 1.089088 0.359557
H 1.935623 -4.606066 -6.580523
C -2.232619 2.273500 1.084074
H 3.553808 1.226230 3.341191
H 1.532651 -3.068823 -8.166202
H 4.312529 -1.045348 3.036450
C -1.133891 2.743525 1.685261
H 0.566148 -1.074023 -7.640366
C -0.076089 1.834644 1.394284
H 0.320587 -0.463116 -5.417876
H 4.880783 -3.951522 -0.209324
C 1.172180 1.844618 2.017297
C 2.028496 0.771167 1.971615
C -4.941662 0.180207 0.370630
C 3.171300 0.590388 2.780875
C -6.287526 0.437038 0.316605
H -7.767190 1.550385 -0.488116
C 0.873099 -2.250955 -4.631385
C 3.599458 -0.638908 2.598050
H 2.195352 4.177288 1.333030
H -6.498457 2.001709 -2.229280
C 2.768328 -1.238594 1.603066
H -4.168774 1.926904 -2.273261
C 2.333873 5.275674 3.022220
C 3.009166 -2.490331 0.977204
C 2.047385 5.290635 4.359578
C 2.473969 -2.706019 -0.278068
H 1.324869 4.187262 5.853906
H 4.916987 -4.867884 4.302996
H 0.843191 2.327111 4.603910
H 6.398225 -5.893959 2.867846
H 3.363341 -3.375524 3.452150
Br -3.820109 3.223649 1.282199
H 6.421836 -5.403986 0.661688
N -0.543600 0.838491 0.568809
C 1.364222 -3.482744 -4.997666
N 1.819139 -0.342181 1.220606