111
Ni1 H48 C42 N12 O8
H 5.680738 -3.101361 -2.203251
H 5.368273 -3.405743 0.033015
H 4.165557 -4.155963 0.778543
H 5.723023 -3.347645 2.387063
H 0.087413 -5.483373 2.017289
H -1.468570 -5.660193 2.346625
H -0.186818 -6.090875 4.281574
H -1.103128 -4.802618 4.528607
H 0.452855 -4.625798 4.197816
H -3.182655 -4.507076 3.221525
H -3.957525 -3.107676 3.159541
H -5.014325 -4.672529 1.742849
H -3.652816 -4.870819 0.925446
H -4.427686 -3.471419 0.862007
H 1.757990 3.139108 3.822382
H -2.174690 -3.341330 -3.262832
C -0.930192 -3.679813 2.062377
C 4.594209 -3.275654 0.634893
C -0.669149 -5.105737 2.529766
C -0.347400 -5.161309 4.016210
C -3.401264 -3.737911 2.637413
C -4.195489 -4.231743 1.435235
N 1.928368 -4.178697 1.494201
Ni -0.005380 0.023294 0.030694
H 5.469083 -0.286140 -1.787090
O 2.024724 -5.088055 0.653730
O 2.315495 -4.260792 2.646888
H 5.151360 -2.069492 -3.306318
H 4.320966 -2.605003 2.592246
H 5.522371 -1.854782 1.848314
H -4.700791 2.805677 3.142171
H -4.739702 1.207985 3.242296
H -6.791930 2.004937 2.372013
H -6.056107 1.115787 1.264266
H -6.018015 2.712215 1.162873
H -4.272734 4.463992 1.609014
H -3.101927 4.956561 0.632332
H -2.726963 5.786350 2.815429
H -1.545022 4.784793 2.415603
H -2.715011 4.293487 3.390644
H -1.148266 4.533457 -3.386723
H -0.280900 4.059833 -4.642681
H 0.168637 6.331965 -4.171877
H 1.502312 5.475653 -3.946321
H 0.633143 5.950539 -2.688810
H 2.950760 2.328264 -4.565480
H 1.767389 3.272986 -5.083256
H 1.861926 1.312814 -6.397896
H 0.468757 1.357019 -5.611688
H 1.652129 0.412297 -5.092457
H 2.786222 -0.137106 1.789716
H 3.472008 1.431536 3.483438
H -0.044398 2.596019 2.219918
H -1.076186 0.452713 -3.009184
H -1.996134 -1.214443 -4.463353
H -1.395341 -2.886651 -1.000045
C 2.758392 -0.586733 -1.171678
C 3.950154 -1.364740 -0.909150
C 3.610028 -2.341036 -0.009884
C 2.186755 -2.128853 0.257525
C 1.314939 -2.904333 1.053478
C -0.009212 -2.721198 1.444743
C -2.108417 -3.040737 2.217838
C -1.916184 -1.661544 1.735445
C -2.780574 -0.580418 1.827050
C -2.686244 0.730573 1.363459
C -3.508921 1.886215 1.734224
C -2.983279 2.954710 1.081154
C -1.905890 2.443197 0.241697
C -1.194670 3.096166 -0.786266
C -0.137969 2.647802 -1.589091
C 0.337613 3.206047 -2.875074
C 1.362316 2.402781 -3.276088
C 1.545547 1.415117 -2.205804
C 2.573297 0.483025 -2.076477
C 5.364627 -1.208128 -1.441205
C 5.751782 -2.184425 -2.540759
C 5.085190 -2.719935 1.988808
C -4.734388 1.970836 2.611114
H 5.996658 -1.316746 -0.686835
C -6.014974 1.948102 1.778702
C -3.306404 4.381897 1.411649
H 6.675001 -2.011394 -2.820082
C -2.502005 4.852995 2.615937
C -0.227064 4.345270 -3.696076
C 0.594229 5.643631 -3.619373
C 1.967887 2.409096 -4.644033
C 1.440496 1.271135 -5.514082
C 2.293911 0.618166 2.088700
C 1.745442 2.411622 3.210926
C 0.760408 2.104713 2.332069
C -1.246504 -0.451593 -2.772428
C -1.857552 -2.507752 -2.935515
C -1.420233 -2.251364 -1.706812
N 1.716459 -1.030045 -0.409140
N -0.649765 -1.535244 1.229064
N -1.686357 1.106946 0.498660
N 0.573610 1.545206 -1.262475
N -4.022139 -0.864593 2.606208
N -1.703812 4.442521 -1.117325
N 3.710090 0.686368 -2.998016
N 1.100178 0.974331 1.623375
N 2.709641 1.474478 3.045000
N -1.000760 -0.934058 -1.596720
N -1.764741 -1.350847 -3.625565
O -3.927115 -0.889853 3.828362
O -5.054600 -1.056568 1.970873
O -2.819386 4.551139 -1.593803
O -0.954496 5.401136 -0.880003
O 4.411716 1.676557 -2.794326
O 3.870730 -0.105532 -3.911266