12
H6 C4 N2
C 0.374369 -0.380808 -0.359063
N -0.872319 0.037244 -0.592165
N 0.852800 0.092816 0.740751
H -1.364063 -0.163572 -1.294188
C -1.254760 0.846826 0.471771
H -2.087047 1.287612 0.600681
C 1.093839 -1.305321 -1.283398
C -0.202671 0.860719 1.255470
H 0.516600 -1.518768 -2.046443
H 1.324938 -2.130059 -0.808340
H 1.913501 -0.873376 -1.604963
H -0.161101 1.335605 2.078214