290
H138 Pd4 C132 S8 N4 Cl4
C -7.102405 2.879689 9.581304
H -14.766263 4.416798 -1.694174
H 3.461782 4.021359 7.196059
H -3.461782 -4.021359 -7.196059
H 2.050374 5.773728 7.752521
H -2.050374 -5.773728 -7.752521
H -14.723700 2.949847 -2.331558
C -8.224805 3.348475 10.491476
Pd -8.574834 3.818059 2.698248
C 1.405094 -2.909984 10.657210
C 0.063176 -2.857365 11.003330
H 7.962578 -0.511838 -0.650400
C -0.374964 -3.523871 12.134333
H 8.100776 -1.720478 0.393135
C 0.506274 -4.238213 12.956824
H 8.784280 -5.635005 -6.338683
C 1.829764 -4.255752 12.607665
H 8.733741 -4.721350 -8.459385
C 2.284631 -3.608381 11.454127
C -0.054836 -5.016335 14.142456
C -0.953323 -4.123408 15.014146
H 11.568081 -1.092241 0.020455
C 1.064340 -5.585575 15.030924
H 12.924700 -1.832094 1.744039
C -0.883521 -6.202651 13.590852
H 11.168992 -5.432502 1.573666
H 9.756601 -4.667136 -0.097347
C -8.012527 1.497247 0.566494
H -0.518049 -8.316974 -9.917305
C -8.159647 4.947771 6.539695
C -8.121267 4.402447 7.807092
H 5.637315 -4.223862 -10.181608
H -5.025117 2.862149 9.606104
H 5.025117 -2.862149 -9.606104
C -10.513638 2.793585 0.175080
C -11.465379 1.975600 -0.354897
C -12.277284 2.422064 -1.374762
H 1.341687 -6.776676 -9.242761
C -12.176615 3.702457 -1.871518
H 1.101352 -5.194920 -9.206915
C -11.240001 4.531603 -1.281359
H 0.419376 -6.132493 -8.102788
C -10.404098 4.083545 -0.278220
H -1.341687 6.776676 9.242761
C -13.087550 4.158487 -2.995286
H -1.456541 -7.696709 -8.781008
H -1.101352 5.194920 9.206915
H -1.958129 -7.731788 -10.300238
C -5.731373 3.249615 10.164502
H -0.419376 6.132493 8.102788
C -7.146846 1.301122 9.523769
H 1.456541 7.696709 8.781008
H 1.958129 7.731788 10.300238
H -0.493878 0.420951 1.043613
H 0.493878 -0.420951 -1.043613
C 0.054324 6.121331 11.412516
C -1.763937 0.715936 -2.370638
C 1.763937 -0.715936 2.370638
C -2.974787 1.423899 -2.732645
C 2.974787 -1.423899 2.732645
C -3.546492 1.836878 -1.575288
C 3.546492 -1.836878 1.575288
C -2.692363 1.369686 -0.502434
C 2.692363 -1.369686 0.502434
C -2.994083 1.527542 0.869796
C 2.994083 -1.527542 -0.869796
C -2.169438 1.140076 1.917902
C 2.169438 -1.140076 -1.917902
C -2.450646 1.216613 3.320713
C 2.450646 -1.216613 -3.320713
C -1.340902 0.800445 3.988595
C 1.340902 -0.800445 -3.988595
C -0.361819 0.406601 3.061695
C 0.361819 -0.406601 -3.061695
C 0.908373 -0.135534 3.321059
C -0.908373 0.135534 -3.321059
C -4.324907 2.123890 1.228929
C 4.324907 -2.123890 -1.228929
C -4.397594 3.248021 2.057187
C 4.397594 -3.248021 -2.057187
C -5.628823 3.790155 2.436663
C 5.628823 -3.790155 -2.436663
C -6.817457 3.217725 1.986146
C 6.817457 -3.217725 -1.986146
C -6.749508 2.112728 1.112129
C 6.749508 -2.112728 -1.112129
C -5.513804 1.572189 0.763728
H 0.005425 1.227774 -8.653082
C -5.682045 5.033874 3.275560
C 5.513804 -1.572189 -0.763728
C 5.682045 -5.033874 -3.275560
H 12.060954 -5.810402 3.643865
C -7.299786 4.501307 5.567460
H 0.551480 2.366256 -10.470382
C 7.299786 -4.501307 -5.567460
H 1.298428 3.498359 -12.358065
H 15.215993 -4.191972 3.213840
H -2.450051 4.718161 -13.157905
C -7.232058 3.413850 8.163176
H -3.205300 3.649838 -11.220220
C -6.382587 2.959414 7.163975
C 6.382587 -2.959414 -7.163975
C -6.414689 3.482414 5.882675
C 6.414689 -3.482414 -5.882675
H 1.300388 4.644813 -15.768714
H 1.700893 3.786966 -14.477003
H 0.430894 3.367609 -15.355033
H -0.668957 6.078280 -15.779609
C 7.232058 -3.413850 -8.163176
H -1.612488 4.848911 -15.376471
H -1.626460 6.188301 -14.501574
H 1.253146 6.717679 -14.337596
H 0.306738 6.779865 -13.049769
H 1.614687 5.859831 -13.036140
Pd 8.574834 -3.818059 -2.698248
C -12.920140 3.246426 -4.227620
C -1.377335 0.127561 -4.752688
C -12.974137 5.615871 -3.345265
H -1.598272 -4.198350 -11.450096
C 1.377335 -0.127561 4.752688
H -2.958990 -2.425253 -10.855222
C 2.387637 -0.146695 7.372801
C -14.594931 3.904960 -2.511196
C -0.784835 0.912061 -5.733356
C 0.784835 -0.912061 5.733356
C -1.270383 0.912061 -7.038850
C 1.270383 -0.912061 7.038850
C -2.993221 -0.669695 -6.381096
C 2.474744 0.666506 5.098648
C -2.474744 -0.666506 -5.098648
C 2.993221 0.669695 6.381096
C -2.387637 0.146695 -7.372801
C -0.645641 1.753963 -8.125270
C -4.239456 -1.427088 -6.766703
C 0.645641 -1.753963 8.125270
C 4.239456 1.427088 6.766703
S -9.487835 2.118787 1.482023
Cl -10.695566 4.473084 3.591054
C 3.294696 3.015222 8.943813
C -3.294696 -3.015222 -8.943813
C 3.046486 4.035710 8.050700
C -3.046486 -4.035710 -8.050700
C 2.201569 5.076926 8.379878
C -2.201569 -5.076926 -8.379878
C 1.558062 5.124761 9.636505
C -1.558062 -5.124761 -9.636505
C 1.927174 4.142542 10.560412
C -1.927174 -4.142542 -10.560412
C 2.757165 3.096542 10.214107
C -2.757165 -3.096542 -10.214107
C 0.553363 6.239325 9.954277
C 8.012527 -1.497247 -0.566494
C -0.553363 -6.239325 -9.954277
C 8.159647 -4.947771 -6.539695
C 8.121267 -4.402447 -7.807092
S 2.079254 -2.254480 9.149605
H 5.657973 -2.897228 -11.076273
C 10.513638 -2.793585 -0.175080
C 11.465379 -1.975600 0.354897
C 12.277284 -2.422064 1.374762
H 7.061336 -0.939168 -10.430731
C 12.176615 -3.702457 1.871518
H 6.408388 -0.974247 -8.969002
C 11.240001 -4.531603 1.281359
C 10.404098 -4.083545 0.278220
C 13.087550 -4.158487 2.995286
H 0.587158 -6.837267 -11.597628
H -0.816144 -6.197868 -12.025267
C -0.692833 6.070307 9.042523
C 0.692833 -6.070307 -9.042523
C 1.177251 7.621767 9.716965
C -1.177251 -7.621767 -9.716965
H 0.379752 -5.252322 -11.538755
S -7.361100 5.295534 3.961492
Pd -3.165258 0.240931 -9.202959
S 7.361100 -5.295534 -3.961492
S 4.366789 1.631983 8.573701
S -4.366789 -1.631983 -8.573701
N -1.585481 0.706369 -1.004903
N 1.585481 -0.706369 1.004903
N -0.899346 0.605915 1.803023
N 0.899346 -0.605915 -1.803023
H 0.518049 8.316974 9.917305
Cl 4.026138 -0.294666 11.416662
H 8.092717 -2.976954 -11.388892
H 9.084163 -3.045518 -10.135044
H 8.217727 -4.327505 -10.541792
C 7.102405 -2.879689 -9.581304
H 7.998893 -1.012515 -9.136418
H -0.005425 -1.227774 8.653082
C 12.920140 -3.246426 4.227620
C 12.974137 -5.615871 3.345265
H -0.551480 -2.366256 10.470382
C 14.594931 -3.904960 2.511196
H -1.298428 -3.498359 12.358065
H 2.450051 -4.718161 13.157905
H -8.092717 2.976954 11.388892
H 3.205300 -3.649838 11.220220
H -9.084163 3.045518 10.135044
H -1.300388 -4.644813 15.768714
H -8.217727 4.327505 10.541792
H -1.700893 -3.786966 14.477003
H -0.430894 -3.367609 15.355033
H 0.668957 -6.078280 15.779609
H 1.612488 -4.848911 15.376471
S 9.487835 -2.118787 -1.482023
H 1.626460 -6.188301 14.501574
C -1.405094 2.909984 -10.657210
H -1.253146 -6.717679 14.337596
C -0.063176 2.857365 -11.003330
H -7.998893 1.012515 9.136418
C 0.374964 3.523871 -12.134333
H -0.306738 -6.779865 13.049769
C -0.506274 4.238213 -12.956824
H -1.614687 -5.859831 13.036140
C -1.829764 4.255752 -12.607665
Cl 10.695566 -4.473084 -3.591054
C -2.284631 3.608381 -11.454127
H 1.598272 4.198350 11.450096
C 0.054836 5.016335 -14.142456
H 2.958990 2.425253 10.855222
C 0.953323 4.123408 -15.014146
C -1.064340 5.585575 -15.030924
C 0.883521 6.202651 -13.590852
H -7.962578 0.511838 0.650400
H -8.100776 1.720478 -0.393135
H -8.784280 5.635005 6.338683
H -8.733741 4.721350 8.459385
H -11.568081 1.092241 -0.020455
H -12.924700 1.832094 -1.744039
H -11.168992 5.432502 -1.573666
H 13.532290 -3.539817 4.934168
H -9.756601 4.667136 0.097347
H 13.127219 -2.321609 3.977294
H 11.997666 -3.299045 4.549228
C 5.731373 -3.249615 -10.164502
H -5.657973 2.897228 11.076273
C 7.146846 -1.301122 -9.523769
H -5.637315 4.223862 10.181608
H -7.061336 0.939168 10.430731
C -0.054324 -6.121331 -11.412516
H -6.408388 0.974247 8.969002
H 13.606278 -5.831130 4.061694
S -2.079254 2.254480 -9.149605
Cl -4.026138 0.294666 -11.416662
H -0.587158 6.837267 11.597628
H -3.304840 1.570594 -3.612094
H 0.816144 6.197868 12.025267
H 3.304840 -1.570594 3.612094
H 13.180320 -6.158005 2.553827
H -0.379752 5.252322 11.538755
H -4.350073 2.335960 -1.485272
H 4.350073 -2.335960 1.485272
H -3.265068 1.506814 3.715491
H 3.265068 -1.506814 -3.715491
H -1.241752 0.781311 4.932158
H 1.241752 -0.781311 -4.932158
H -3.594957 3.651432 2.367029
H 3.594957 -3.651432 -2.367029
H -5.483167 0.810012 0.197509
Pd 3.165258 -0.240931 9.202959
H -5.426691 5.815185 2.724252
H 5.483167 -0.810012 -0.197509
H -5.030681 4.957338 4.017428
H 5.426691 -5.815185 -2.724252
H 5.030681 -4.957338 -4.017428
H -5.760930 2.270585 7.365913
H 5.760930 -2.270585 -7.365913
H -5.827408 3.141189 5.217875
H 5.827408 -3.141189 -5.217875
H 14.766263 -4.416798 1.694174
H 14.723700 -2.949847 2.331558
H -13.532290 3.539817 -4.934168
H -0.039424 1.455789 -5.512517
H -13.127219 2.321609 -3.977294
H -2.875375 -1.218207 -4.436170
H 0.186598 -2.544841 7.742644
H -11.997666 3.299045 -4.549228
H 0.039424 -1.455789 5.512517
H -13.606278 5.831130 -4.061694
H 2.875375 1.218207 4.436170
H -12.060954 5.810402 -3.643865
H -4.226665 -2.318420 -6.335451
H -13.180320 6.158005 -2.553827
H -5.033904 -0.939168 -6.436023
H -15.215993 4.191972 -3.213840
H -0.186598 2.544841 -7.742644
C 8.224805 -3.348475 -10.491476
H 4.226665 2.318420 6.335451
H 5.033904 0.939168 6.436023