77
Ni1 H8 C44 N4 F20
Ni -0.000928 0.000536 0.000781
N 1.318007 -1.236256 0.747283
F -1.769679 1.243352 -5.170772
H -0.177114 -4.021141 -3.078263
F 1.769791 -1.243417 5.170678
F -3.587645 1.156406 -7.154520
H 0.177226 4.021077 3.078169
H -1.821846 -2.478277 -4.006943
F 3.587757 -1.156471 7.154426
F -5.854441 -0.338724 -6.856052
H 1.821958 2.478212 4.006849
H -3.547289 2.310571 -2.812572
F 5.854553 0.338659 6.855958
F -6.297171 -1.639845 -4.533857
H 3.547401 -2.310636 2.812477
H -3.069913 3.928448 -1.012324
F 6.297283 1.639780 4.533762
F -4.492099 -1.561593 -2.563517
H 3.070025 -3.928513 1.012230
C 0.169352 -2.548174 -1.586417
F 4.492212 1.561529 2.563423
F 0.166399 5.521435 0.040759
C -0.169240 2.548110 1.586323
C -0.397593 -3.161911 -2.735844
F -0.166287 -5.521499 -0.040853
F -0.653506 7.984563 0.784944
C 0.397705 3.161846 2.735750
C -1.285414 -2.326547 -3.239417
F 0.653618 -7.984628 -0.785038
F -2.852683 8.266711 2.343089
C 1.285526 2.326483 3.239322
C -1.296241 -1.151924 -2.425705
F 2.852795 -8.266776 -2.343183
F -4.267093 6.078059 3.103414
C 1.296353 1.151860 2.425611
C -2.121067 -0.071067 -2.668304
F 4.267205 -6.078124 -3.103508
F -3.444432 3.626183 2.358981
C 2.121179 0.071002 2.668209
C -2.099413 1.047297 -1.871973
F 3.444544 -3.626248 -2.359075
C 2.099525 -1.047362 1.871879
C -2.928177 2.196348 -2.101164
C 2.928289 -2.196413 2.101069
C -2.668327 3.076037 -1.125057
C 2.668439 -3.076101 1.124963
C -1.675189 2.491282 -0.288749
C 1.675301 -2.491347 0.288655
C -1.145646 3.135705 0.802325
C 1.145758 -3.135770 -0.802419
C -3.087630 -0.142669 -3.807798
C 3.087742 0.142605 3.807704
C -2.882900 0.518802 -4.990995
C 2.883012 -0.518867 4.990901
C -3.815013 0.469362 -6.026945
C 3.815125 -0.469427 6.026850
C -4.947920 -0.272236 -5.861819
C 4.948032 0.272171 5.861724
C -5.170367 -0.933707 -4.702211
C 5.170479 0.933642 4.702117
C -4.248096 -0.880858 -3.690348
C 4.248209 0.880793 3.690253
C -1.627943 4.506383 1.166099
C 1.628055 -4.506448 -1.166194
C -0.942884 5.641795 0.780474
C 0.942996 -5.641860 -0.780568
C -1.348408 6.906774 1.156415
C 1.348520 -6.906838 -1.156510
C -2.465565 7.038045 1.942813
C 2.465677 -7.038110 -1.942907
C -3.184090 5.940139 2.336881
C 3.184202 -5.940204 -2.336975
C -2.762818 4.685389 1.940578
C 2.762930 -4.685454 -1.940673
N -0.397298 -1.285412 -1.388514
N 0.397410 1.285347 1.388420
N -1.317895 1.236192 -0.747377