15
H8 C7
H 1.365410 -0.276049 -1.650478
H -1.874954 0.982216 1.464858
C 0.521456 -0.761088 0.128775
H -0.611108 -0.926442 1.766667
C -1.028917 1.465679 -0.300131
C -0.064101 1.079853 -1.196237
C 0.724630 -0.030381 -1.022029
H 0.835074 -2.594155 0.779021
C -1.236259 0.730248 0.838100
C -0.462114 -0.395734 1.017500
H -1.540499 2.223158 -0.463948
C 1.370619 -1.860298 0.468000
H 0.061971 1.596388 -1.960039
H 1.980141 -1.592582 1.158622
H 1.865530 -2.132739 -0.307975