116
Fe1 H47 C55 N6 Cl1 O6
H -1.202672 3.724545 -3.037625
H -2.246233 4.610852 -0.972498
H 3.796418 1.026525 0.838102
H 3.648945 -0.362312 -1.067431
H 3.158241 1.930210 -1.577937
H 2.457998 2.602180 -6.921994
H 3.458638 1.846213 -4.973120
H 2.463224 -2.085685 8.636650
H 1.633074 -1.231239 7.566402
H 0.301417 3.594206 -9.484571
H 1.014450 4.290797 -8.233360
H -1.258333 4.185077 -6.777362
H -1.636192 3.989568 -8.320750
H -0.967253 1.498642 -9.184232
H -1.067355 5.478331 0.744176
H -1.851654 7.492796 1.665672
H -4.069129 5.400128 4.332632
H -3.399322 3.391456 3.316558
C 3.371336 -0.867738 2.776600
C 4.619678 -0.956079 3.404200
C 4.689063 -1.099452 4.773571
C 3.557577 -1.171863 5.570284
C -1.319631 3.255324 -2.219332
C -1.850930 3.754958 -1.082408
C 3.038877 0.398000 0.735323
C 2.345552 -1.894521 7.681000
C 0.766169 3.433455 -8.637362
C -1.421864 3.526140 -7.483760
C -2.188944 4.244454 1.911636
C -1.706243 5.460953 1.447844
C -2.153082 6.657177 2.004628
C -3.031954 6.605041 3.048201
C -3.488468 5.408817 3.581235
C -3.075388 4.221283 2.988533
O 3.324824 -0.854704 1.393961
N -3.483523 7.870779 3.651410
O -3.242059 8.919286 3.081887
O -4.085080 7.791128 4.725386
H 5.644561 -1.939416 7.191638
H 4.772195 -2.491185 8.413832
H 4.635987 -3.161707 6.966587
H 4.834783 0.340072 7.343730
H 3.270247 0.642748 7.500755
Fe -1.276120 -0.254275 0.218486
H 4.067548 -0.084255 8.683001
H 0.915382 1.437817 4.596771
H 1.515607 -3.578793 2.988012
H 0.342431 -4.985008 1.289524
H -1.603300 -3.462936 -0.750912
H -0.402795 -3.409352 -3.737303
H 0.022023 -1.155932 -4.694926
H 1.523394 -1.076281 5.457950
H 2.102891 -2.718554 7.211145
H 2.227433 0.815086 1.119925
H 2.099524 -0.614301 -0.779251
H 1.594483 1.620292 -1.359145
H -1.184989 2.057652 -5.262859
H 1.575104 2.904857 -8.804938
H 0.310313 0.823775 -8.494253
H -1.099603 0.826671 -7.738038
H -2.172363 2.951200 -7.227728
H 1.475067 -5.013972 -1.047244
H 1.685444 -7.206566 -1.813611
H -2.271530 -7.252909 -2.746388
H -2.452161 -5.024109 -1.986880
C -1.107177 2.041722 2.221052
C -0.526778 2.409568 3.483611
C 0.341057 1.437817 3.839532
C 0.225360 0.396552 2.842925
C 0.908359 -0.817051 2.838880
C 0.565949 -1.910451 2.038907
C 0.948669 -3.270323 2.291496
C 3.667136 -1.336959 7.100179
C 0.339428 -4.036428 1.337362
C 4.779288 -2.320296 7.448782
C -0.305185 -3.135640 0.422218
C -0.618609 -3.409352 -0.918029
C 3.988124 0.008431 7.709948
C -0.731323 -2.407188 -1.877895
C -0.442309 -2.583870 -3.271219
C -0.235546 -1.351441 -3.800711
C -0.481587 -0.397069 -2.752259
C -0.442511 0.985975 -2.896099
C -0.964255 1.891108 -1.964282
C -1.707135 2.745553 -0.069886
C -1.723486 2.942510 1.331770
C 2.215006 -0.918425 3.557967
C 2.315274 -1.057454 4.935229
C 2.822390 0.059118 -0.720016
C 2.462997 1.227826 -1.629196
C 1.748351 1.398715 -3.981781
C 0.348759 1.504435 -4.062838
C -0.238529 1.985242 -5.223719
C 0.521145 2.369018 -6.345314
C 1.908370 2.313986 -6.201725
C 2.510692 1.850558 -5.040909
C -0.159667 2.664454 -7.684003
C -0.510116 1.334994 -8.332531
C -0.515892 -4.825704 -1.407218
C 0.712826 -5.471607 -1.381136
C 0.844119 -6.766310 -1.832022
C -0.282667 -7.404971 -2.313977
C -1.517545 -6.795274 -2.393807
C -1.618573 -5.477400 -1.935701
N -0.678334 0.777432 1.882708
N -0.234298 -1.853971 0.932476
N -0.810221 -1.056006 -1.599325
N -1.241484 1.586983 -0.657969
N -0.177150 -8.812635 -2.734297
Cl -3.413199 -0.741309 0.532790
H 5.416836 -0.918425 2.887213
O 2.381551 0.699229 -2.966619
H 5.543459 -1.150140 5.186391
O 0.888490 -9.387575 -2.518044
H -0.720726 3.197396 3.980429
O -1.130647 -9.344129 -3.274182