130
Fe1 H56 C60 N6 Cl1 O6
C 1.710912 -2.213205 -2.715973
H -3.576662 0.361692 -3.489647
C 3.110160 -2.721572 -2.418210
H -1.586507 1.390824 -4.559590
C 3.253696 -3.657021 -1.232393
O -1.675157 -0.577891 9.827248
H -3.739300 -0.696372 3.656033
N 1.615201 0.833688 -0.714992
H -4.838054 -1.021506 1.461003
N 0.896175 0.319122 1.978490
H -5.780478 -3.144522 -3.233568
H -7.778091 -2.109879 -2.645039
N 1.823661 3.067470 -8.287422
H -5.787461 0.535281 -0.369389
H -3.775989 -4.059306 -3.567725
Cl -0.488413 3.102325 0.644171
H -3.334907 -2.740859 -4.375455
H -1.595380 -4.332088 -2.760530
H -1.566312 -4.297646 -4.358406
O 4.120701 -2.060006 0.258085
O 1.475976 2.334540 -9.213736
H -1.956609 -2.258669 4.608839
H -2.448756 -2.778057 6.825131
H -0.918790 1.496906 5.701513
H -0.653556 -2.195295 -4.366918
H -0.975402 -1.951445 -2.859316
H 1.026487 -3.771369 -3.876828
H 0.546670 -3.874696 -2.354238
H 9.720072 1.512061 3.570882
H 9.256354 -0.019927 3.550389
H 9.435770 0.780509 2.176499
H 6.315413 1.616765 4.684890
H 7.303329 0.398890 5.003724
H 7.818467 1.907457 5.152576
H 8.272519 3.283767 3.072098
H 7.832319 2.691361 1.652025
H 6.721549 3.070225 2.740214
H -10.001335 0.766732 -1.933664
H -8.721609 0.766732 -2.895478
H -9.513174 -0.595800 -2.617900
H -7.547636 1.002317 0.591502
H -7.782325 1.950165 -0.675839
H -9.027620 1.480374 0.214185
H 2.208724 4.330809 -6.041693
H -9.929168 -0.739080 0.175905
H 1.772808 3.633699 -3.856116
H -9.236022 -1.917002 -0.657313
H -8.514609 -1.324597 0.642828
C -2.383833 0.229434 -1.725791
C -2.735159 0.520126 -3.078129
C -1.643277 1.065690 -3.669249
C -0.588977 1.057424 -2.697689
C -0.994774 -0.044726 3.521572
C -2.005393 -0.141164 2.555313
C -3.344106 -0.555848 2.801750
C -3.951944 -0.714282 1.607723
C -3.004644 -0.327151 0.597739
C -3.262867 -0.274799 -0.771668
C -4.573982 -0.814853 -1.280759
C -4.567301 -1.911492 -2.144723
C -5.773067 -2.393682 -2.650587
C -6.961616 -1.769590 -2.297848
C -7.003108 -0.678462 -1.463296
C -5.786298 -0.212803 -0.955243
C -8.326926 -0.024060 -1.038365
C -3.160225 -3.283668 -3.565786
C -1.732887 -3.750704 -3.549283
C -0.717043 -2.612735 -3.506404
C -1.349324 -0.345061 4.937818
C -1.827702 -1.605645 5.287190
C -2.115084 -1.919758 6.594102
C -1.902996 -0.955377 7.563389
C -1.200195 0.620697 5.934525
C 0.680851 -3.249226 -3.109730
C -9.219702 0.252855 -2.225580
C 7.698206 1.293009 3.178970
C -8.156245 1.214481 -0.145793
C 9.157417 0.852149 3.113159
C -9.073932 -1.105545 -0.131934
C 7.242970 1.305408 4.635108
N -1.070953 0.586531 -1.487751
C 7.625604 2.712027 2.609452
N -1.813028 0.024985 1.194727
O -3.360819 -2.488743 -2.378143
C 1.871576 3.458733 -5.873132
O -2.765875 -2.339952 9.205595
Fe -0.158534 0.927922 0.321541
H 3.563511 1.403224 -3.217998
H 4.803452 0.715758 -1.175493
H 3.457040 -0.124631 3.856397
O 2.311860 4.170997 -8.449253
H 1.334157 -0.170095 5.131359
H 5.153091 1.563035 2.424467
H 8.094053 -1.182695 2.090915
H -1.327936 0.965119 7.943092
H 6.673801 -2.574159 0.868926
H 0.618576 0.009004 -5.254571
H 1.048168 0.704736 -7.450733
H 1.774478 -1.547782 -3.446285
H 1.378454 -1.737903 -1.912931
H 3.696417 -1.939045 -2.264189
H 3.445715 -3.189985 -3.222494
H 2.407586 -3.637734 -0.721132
H 3.367637 -4.577316 -1.579362
H 5.256846 -3.338776 -0.729099
H 4.487828 -4.011087 0.456026
C 0.754195 1.350872 -2.963587
C 1.794506 1.167639 -2.048032
C 3.184140 1.180038 -2.375394
C 3.861411 0.813574 -1.258541
C 2.886920 0.598654 -0.222230
C 3.197287 0.284542 1.094494
C 2.262145 0.201880 2.125843
C 2.582836 -0.018550 3.497386
C 1.428446 -0.051614 4.193275
C 0.367801 0.127485 3.238497
C 4.427433 -3.356686 -0.245510
C 5.062951 -1.330108 0.913791
C 4.608625 -0.083301 1.385697
C 5.468104 0.726779 2.103330
C 6.791227 0.350671 2.372559
C -1.455996 0.317606 7.259023
C 7.207047 -0.894759 1.907648
C 6.361461 -1.733770 1.181082
C 1.107134 1.760045 -4.345406
C 0.924346 0.893479 -5.417260
C 1.180451 1.295764 -6.719814
C 1.639458 2.589412 -6.911875
C 1.611060 3.045427 -4.583863
N -2.121837 -1.327352 8.967313