102
H50 C48 Se2 N2
H -7.079610 -3.453813 -2.196803
H -6.582395 -3.358685 -3.680728
H -7.322057 -4.648198 -3.184058
H 3.769381 -4.346372 6.688071
H 2.730649 -4.294698 5.514548
C 4.561588 5.948589 2.793069
H -1.391621 -2.906534 3.747221
H 1.134377 -2.922976 4.632249
H 1.636283 -1.642858 7.589821
H 1.167319 -2.981697 6.921185
H 2.185069 -3.015755 8.113241
H -6.256808 -6.169071 -1.607936
H -5.894953 -5.028710 -0.595645
H 0.759034 0.441736 1.247068
H -5.455767 -6.093908 -3.920027
C 1.026570 -1.487835 3.227591
C -6.713627 -3.948244 -2.935255
C 1.674204 -0.287578 2.876575
C 2.618537 -1.631114 5.127442
C 3.480507 -3.850767 5.918537
H 0.911781 4.723670 -0.409633
C 3.068512 -2.442638 6.345889
C -0.109055 -2.030417 2.460512
C -1.252186 -2.655208 2.863330
C 1.532864 -2.127894 4.364030
C 1.906445 -2.528371 7.333603
C -5.592792 -5.520792 -1.362857
N 1.395860 0.555655 1.813746
C 1.457751 2.792924 -0.212907
H -4.623130 -2.420324 -3.919489
H 3.976551 -0.139601 5.165800
H -3.695852 -0.042125 -5.370037
H -3.911741 4.197530 -6.792691
H -4.454897 3.556297 -5.470257
H -3.050451 4.252728 -5.484681
H -3.590887 0.771748 -7.521102
H -4.776609 1.377749 -6.693852
H -4.263696 2.109412 -7.981684
H -3.036887 -3.308185 2.029976
H -2.038476 3.084180 -8.034753
H -1.173143 3.218064 -6.734818
H 4.199384 -3.795569 5.284805
H -1.339070 1.820505 -7.423945
H 5.586394 5.107705 0.477307
H 6.583177 4.007274 0.979444
H 3.458196 4.360774 0.606894
H 4.000219 -0.893579 7.333595
H 4.498680 -2.297010 7.821702
H 4.996151 -1.721544 6.449943
H -0.757635 4.246855 -2.052183
H 4.786439 2.299668 3.779083
H 6.664526 3.474087 3.486905
H -3.773492 -4.136151 -0.365532
H 6.915467 5.006705 3.699850
H 5.746095 4.290309 4.460255
H -4.769742 -5.968245 -1.153236
H -1.340857 3.057169 -4.430877
H -4.770142 -4.806745 -4.494237
H -3.981313 -5.745106 -3.516808
H -1.087526 -0.208892 -0.946412
C -4.142478 -2.435592 -3.122622
C 2.377743 2.690750 0.921908
C 2.777664 0.223294 3.575364
C -3.122910 0.385364 -4.774655
C -3.004950 2.378354 -6.374765
C -2.661237 -2.481394 -0.688793
C 2.291809 1.605586 1.797210
C -4.357016 -3.449116 -2.191763
C 3.241347 -0.466090 4.698270
C -1.258978 1.634946 -3.012560
C -3.668366 3.724239 -5.993763
C 3.174582 1.452911 2.867125
C 5.294544 4.641460 2.478215
C -4.001557 1.585621 -7.222127
C -5.367383 -4.562465 -2.522548
H 6.815222 5.509356 1.364318
C -1.890507 -2.495095 0.580230
C -2.467486 -1.489009 -1.640302
C -2.769242 -0.241776 -3.553229
C -3.190443 -1.436161 -2.847582
C -1.828401 0.387713 -2.725102
H 4.031335 5.835845 3.586197
C -2.223942 -2.898313 1.845244
C 6.151008 4.835240 1.203967
C -1.777115 2.650819 -7.219863
C 3.376953 3.630285 1.177950
H 5.201947 6.649718 2.933256
H 3.989792 6.181124 2.055990
C 4.263498 3.521064 2.262121
C -2.613863 1.636121 -5.080211
C 4.250755 -1.776742 7.053830
C -0.217181 3.578611 -1.694637
C -0.321902 2.285575 -2.090611
C 4.178847 2.411238 3.084710
C 0.755327 3.855774 -0.708898
C 6.244305 4.323193 3.639193
C -3.617519 -3.458511 -0.983563
C -1.688561 2.224505 -4.205098
C -4.844764 -5.378687 -3.727014
Se 0.986132 1.262186 -1.203799
Se -0.123592 -1.838986 0.589290
N -1.635963 -0.387404 -1.584024