118
Fe1 H48 C56 N6 Cl1 O6
C 5.235351 -2.508877 -0.583145
C 6.428543 -3.220292 -0.571052
H -4.792941 -0.400676 2.040491
C 6.781601 -3.903519 0.582010
H -4.271280 -2.551464 0.888273
C 5.981816 -3.909034 1.710436
C 4.790065 -3.196394 1.678418
H -3.899488 -5.642838 -3.607012
Cl 0.722835 -0.137190 3.329573
C -1.801314 -1.325944 -3.576955
C -1.474195 0.141616 -3.463166
H -3.472936 -7.888604 -3.185097
C 0.015855 0.432677 -3.393887
H -3.864903 -9.019146 -2.120963
C 0.214720 1.955386 -3.289670
N -1.741798 -0.586343 1.031184
N 0.683495 -1.979453 0.567990
H -4.506172 -8.378812 0.203815
N 1.988657 0.417665 0.280807
H -4.488879 -6.840784 0.648255
N -0.445571 1.824562 0.762412
H -6.084125 -6.402661 -1.160882
H -6.019278 -7.903923 -1.713257
N 8.026671 -4.662422 0.617106
H -5.693600 -6.678403 -2.688748
O -1.745113 -1.960457 -2.304643
O 1.601013 2.193443 -3.219510
O 8.786107 -4.550900 -0.365524
O 8.261563 -5.386705 1.570537
H -4.912549 4.679104 4.164327
Fe 0.220052 -0.081765 1.167443
H -7.187972 2.644741 1.502903
H -5.308838 1.468242 0.797130
H 0.230572 -4.984121 -0.463774
H 2.593899 -4.509232 0.081555
H 5.174826 0.175318 -0.010345
H 4.282814 2.359807 -0.823308
H -0.399169 4.816975 -0.383549
H -2.465640 4.305320 0.908712
H -2.854724 -5.302756 0.282145
H -2.908043 -3.574773 -4.060278
C -3.970100 -0.640572 1.632147
C -3.667478 -1.833616 1.038376
H -2.484373 -8.222558 -1.971105
H -3.114114 -7.603670 0.354672
H 2.384947 5.233652 -0.073198
H 3.271195 6.232451 -3.878923
H 2.559314 4.139875 -4.603789
H 2.975779 8.334217 -3.215742
H 4.496090 7.883839 -3.004727
H 6.241206 -4.386680 2.489245
H 4.222290 -3.197926 2.440454
H 3.925433 9.158380 -2.225050
H -3.029092 3.456648 3.482679
H 1.291187 7.984944 -1.336713
H 2.253811 8.916339 -0.463653
H 1.827259 7.473290 0.081748
H 4.653165 8.138134 -0.059868
H 5.215176 6.869721 -0.856951
H 4.161766 6.664446 0.329695
H 4.980284 -2.036746 -1.367440
C -3.478700 -5.729850 -1.619879
H 6.990554 -3.237755 -1.337289
C -3.484465 -5.166417 -2.898616
C -4.130057 -7.092322 -1.375270
C -3.423940 -8.153010 -2.242531
C -4.053681 -7.516046 0.088181
C -5.617224 -7.011744 -1.770646
H -2.709178 -1.433177 -3.957295
H -1.158604 -1.761004 -4.190608
H -1.909393 0.506208 -2.650159
H -1.856074 0.616505 -4.244878
H 0.466904 0.086468 -4.206445
H 0.412144 -0.014638 -2.604140
H -0.171482 2.405764 -4.081935
H -0.233448 2.301595 -2.478712
C -2.795641 0.180526 1.517075
C -2.282626 -1.806348 0.685518
C -1.566422 -2.853248 0.103218
C -0.175806 -2.972430 0.164190
C 0.579307 -4.163942 -0.135586
C 1.870491 -3.895859 0.134230
C 1.955513 -2.500911 0.519455
C -3.964335 2.323042 2.069418
C -3.870667 3.289364 3.074153
C 3.127089 -1.746910 0.535536
C 3.141500 -0.346754 0.342458
C -4.986042 4.014259 3.490153
C 4.262639 0.438498 -0.038495
C -6.192204 3.742500 2.901050
C -6.339192 2.805897 1.899406
C 3.777004 1.646555 -0.452883
C -5.223816 2.110108 1.490810
C 2.364772 1.633993 -0.224855
C 1.501581 2.721029 -0.444320
C 0.210397 2.828875 0.080444
C -0.609563 3.994651 0.041778
C -1.749436 3.706654 0.729871
C -1.671619 2.334991 1.134521
C -2.752409 1.581296 1.617676
C -2.312888 -3.206811 -2.170621
O -7.221116 5.456390 4.094446
C -2.289831 -3.730721 -0.865709
C -2.869135 -4.964207 -0.605603
N -7.396925 4.490374 3.340770
C -2.897956 -3.920676 -3.174446
O -8.490685 4.120573 2.955734
C 2.027565 3.439797 -2.765516
C 1.981452 3.762109 -1.401206
C 2.412327 5.013977 -0.998349
C 2.886433 5.972028 -1.905148
C 2.938311 5.609274 -3.244282
C 2.514641 4.360775 -3.681370
C 3.281282 7.368201 -1.408867
C 3.707834 8.267120 -2.567476
C 2.050622 7.992910 -0.719079
C 4.431243 7.249019 -0.409145
C 4.411068 -2.477014 0.537297