213
H96 Pt1 C100 N8 O8
C 0.265440 4.179087 0.780345
H -4.650509 3.548402 -0.954019
H 5.648563 1.114848 -1.327538
C -4.179087 0.265440 -0.780345
H -3.548402 -4.650509 0.954019
C 1.815610 -2.896481 0.135609
C -0.265440 -4.179087 0.780345
H 1.114848 -5.648563 1.327538
C 2.896481 1.815610 -0.135609
H -5.648563 -1.114848 -1.327538
C -1.815610 2.896481 0.135609
H -1.114848 5.648563 1.327538
H 3.508055 -3.820212 1.965137
H 3.820212 3.508055 -1.965137
C 2.616177 -4.147235 0.147504
C -2.896481 -1.815610 -0.135609
C 4.147235 2.616177 -0.147504
H -3.508055 3.820212 1.965137
C -2.616177 4.147235 0.147504
H 4.864984 -5.725010 1.927071
H -3.820212 -3.508055 -1.965137
H 5.725010 4.864984 -1.927071
C 3.478326 -4.410551 1.220478
C -4.147235 -2.616177 -0.147504
C 4.410551 3.478326 -1.220478
H -4.864984 5.725010 1.927071
C -3.478326 4.410551 1.220478
H 4.835255 -7.152015 0.095164
H -5.725010 -4.864984 -1.927071
H 7.152015 4.835255 -0.095164
C 4.287387 -5.542387 1.194308
C -4.410551 -3.478326 -1.220478
C 5.542387 4.287387 -1.194308
H -4.835255 7.152015 0.095164
C -4.287387 5.542387 1.194308
H 3.357285 -6.759164 -1.689161
H -7.152015 -4.835255 -0.095164
H 6.759164 3.357285 1.689161
C 4.259781 -6.398166 0.114197
C -5.542387 -4.287387 -1.194308
C 6.398166 4.259781 -0.114197
C -0.191117 5.442582 1.239511
H -3.357285 6.759164 -1.689161
C -4.259781 6.398166 0.114197
H 1.962132 -4.888343 -1.636821
H -6.759164 -3.357285 1.689161
H 4.888343 1.962132 1.636821
C 3.387014 -6.160332 -0.951640
C -6.398166 -4.259781 -0.114197
C 6.160332 3.387014 0.951640
H -1.962132 4.888343 -1.636821
C -3.387014 6.160332 -0.951640
H 9.579199 -2.904975 -3.340256
H -4.888343 -1.962132 1.636821
H 2.904975 9.579199 3.340256
C 2.565212 -5.045484 -0.920712
C -6.160332 -3.387014 0.951640
C 5.045484 2.565212 0.920712
H -9.579199 2.904975 -3.340256
C -2.565212 5.045484 -0.920712
H 10.086720 -1.477970 -2.809717
H -2.904975 -9.579199 3.340256
H 1.477970 10.086720 2.809717
C 0.460804 -2.981422 0.375898
C -5.045484 -2.565212 0.920712
C 2.981422 0.460804 -0.375898
H -10.086720 1.477970 -2.809717
C -0.460804 2.981422 0.375898
H 9.759698 -3.731025 -1.011117
H -1.477970 -10.086720 2.809717
H 3.731025 9.759698 1.011118
C 9.602557 -2.304019 -2.555153
C -2.981422 -0.460804 -0.375898
C 2.304019 9.602557 2.555153
H -9.759698 3.731025 -1.011117
C -9.602557 2.304019 -2.555153
H 9.865874 -1.395153 -0.133230
H -3.731025 -9.759698 1.011118
H 1.395153 9.865874 0.133230
C 10.326678 -2.996287 -1.384636
C -2.304019 -9.602557 2.555153
C 2.996287 10.326678 1.384636
H -9.865874 1.395153 -0.133230
C -10.326678 2.996287 -1.384636
H 11.392685 -1.382412 -0.609050
H -1.395153 -9.865874 0.133230
H 1.382412 11.392685 0.609050
C 10.660070 -1.966380 -0.290250
C -2.996287 -10.326678 1.384636
C 1.966380 10.660070 0.290250
H -11.392685 1.382412 -0.609050
C -10.660070 1.966380 -0.290250
H 11.241915 -1.913292 1.708194
H -1.382412 -11.392685 0.609050
H 1.913292 11.241915 -1.708194
C 11.080527 -2.611930 1.042046
C -1.966380 -10.660070 0.290250
C 2.611930 11.080527 -1.042046
H -11.241915 1.913292 1.708194
C -11.080527 2.611930 1.042046
H 10.367025 -3.206515 1.358466
H -1.913292 -11.241915 -1.708194
H 3.206515 10.367025 -1.358466
C 11.698472 -3.542031 -1.822391
C -2.611930 -11.080527 -1.042046
C 3.542031 11.698472 1.822391
H -10.367025 3.206515 1.358466
C -11.698472 3.542031 -1.822391
H 11.902330 -3.130068 0.908816
H -3.206515 -10.367025 -1.358466
H 3.130068 11.902330 -0.908816
C 11.687854 -4.650509 -2.888227
C -3.542031 -11.698472 1.822391
C 4.650509 11.687854 2.888227
H -11.902330 3.130068 0.908816
C -11.687854 4.650509 -2.888227
H 12.161399 -3.890289 -1.018255
H -3.130068 -11.902330 -0.908816
H 3.890289 12.161399 1.018255
C 10.963734 -5.930991 -2.433819
C -4.650509 -11.687854 2.888227
C 5.930991 10.963734 2.433819
H -12.161399 3.890289 -1.018255
C -10.963734 5.930991 -2.433819
H 12.235722 -2.786058 -2.167360
H -3.890289 -12.161399 1.018255
H 2.786058 12.235722 2.167360
C 10.959487 -7.024604 -3.518689
C -5.930991 -10.963734 2.433819
C 7.024604 10.959487 3.518689
H -12.235722 2.786058 -2.167360
C -10.959487 7.024604 -3.518689
H 11.248285 -4.306499 -3.706638
H -2.786058 -12.235722 2.167360
H 4.306499 11.248285 3.706638
N 1.975511 -0.451248 -0.137750
C -7.024604 -10.959487 3.518689
N 0.451248 1.975511 0.137750
H -11.248285 4.306499 -3.706638
N -1.975511 0.451248 -0.137750
H 12.622203 -4.877725 -3.123758
H -4.306499 -11.248285 3.706638
H 4.877725 12.622203 3.123758
N 8.241381 -1.974874 -2.138811
N -0.451248 -1.975511 0.137750
N 1.974874 8.241381 2.138811
H -12.622203 4.877725 -3.123758
N -8.241381 1.974874 -2.138811
O 8.364333 0.331057 -2.333897
H 10.029385 -5.708022 -2.195909
H -4.877725 -12.622203 3.123758
H 5.708022 10.029385 2.195909
N -1.974874 -8.241381 2.138811
H -10.029385 5.708022 -2.195909
O 0.331057 -8.364333 2.333897
H 11.405426 -6.283496 -1.622546
O -8.364333 -0.331057 -2.333897
H -5.708022 -10.029385 2.195909
O -0.331057 8.364333 2.333897
O 7.418517 -4.128123 -1.898522
H 6.283496 11.405426 1.622546
O 4.128123 7.418517 1.898522
H -11.405426 6.283496 -1.622546
O -7.418517 4.128123 -1.898522
H 10.462583 -7.806060 -3.192752
H -6.283496 -11.405426 1.622546
H 7.806060 10.462583 3.192752
O -4.128123 -7.418517 1.898522
H -10.462583 7.806060 -3.192752
H 10.530536 -6.680594 -4.329962
H -7.806060 -10.462583 3.192752
H 6.680594 10.530536 4.329962
H -10.530536 6.680594 -4.329962
H 11.881094 -7.287921 -3.720912
H -6.680594 -10.530536 4.329962
H 7.287921 11.881094 3.720912
Pt 0.000000 0.000000 0.000000
H -11.881094 7.287921 -3.720912
H -7.287921 -11.881094 3.720912
C 2.490889 -1.720051 -0.228394
C 1.720051 2.490889 0.228394
C -2.490889 1.720051 -0.228394
C 3.881795 -1.630863 -0.668527
C -1.720051 -2.490889 0.228394
C 1.630863 3.881795 0.668527
C -3.881795 1.630863 -0.668527
C 4.839502 -2.618300 -1.006359
C -1.630863 -3.881795 0.668527
C 2.618300 4.839502 1.006359
C -4.839502 2.618300 -1.006359
C 6.064773 -2.142632 -1.413185
C -2.618300 -4.839502 1.006359
C 2.142632 6.064773 1.413185
C -6.064773 2.142632 -1.413185
C 7.273056 -2.919840 -1.829528
C -2.142632 -6.064773 1.413185
C 2.919840 7.273056 1.829528
C -7.273056 2.919840 -1.829528
C 7.742354 -0.668909 -2.043647
C -2.919840 -7.273056 1.829528
C 0.668909 7.742354 2.043647
C -7.742354 0.668909 -2.043647
C 6.355695 -0.802691 -1.548794
C -0.668909 -7.742354 2.043647
C 0.802691 6.355695 1.548794
C -6.355695 0.802691 -1.548794
C 5.442582 0.191117 -1.239511
C -0.802691 -6.355695 1.548794
C 0.191117 -5.442582 1.239511
H 4.650509 -3.548402 -0.954019
C -5.442582 -0.191117 -1.239511
H 3.548402 4.650509 0.954019
C 4.179087 -0.265440 -0.780345