149
Zn1 H75 C66 N6 O1
Zn -0.710958 -0.624424 -0.228457
H -3.001971 -3.338588 3.543535
H 0.557918 0.439092 4.661636
H 0.462212 6.251426 1.216982
H 1.927257 2.011861 3.326017
H 2.035606 1.674719 -3.956363
H -1.381649 -2.246247 -5.086245
H 0.783733 5.258542 3.541429
H -3.373736 -3.977473 -1.144154
H 0.416895 -2.574961 4.904173
H -1.947105 -2.364247 8.174023
H -3.089994 -0.567278 4.763730
H 2.153626 -4.510158 7.156444
C 0.881494 -2.736789 8.655850
H 1.242136 -4.474758 5.841512
H 2.048541 -3.168332 6.291459
H 0.216873 -5.342900 8.440005
C 2.580301 2.905288 0.885319
H -1.146266 -4.506787 8.497541
C 3.950464 2.794031 0.779923
H -0.729496 -5.265357 7.150979
C 4.777256 3.824001 1.198150
H -5.018524 -1.005563 9.047655
H -4.202930 -2.340647 8.708591
C 2.016993 4.068429 1.396829
H -6.054214 -1.064563 6.889081
H -5.190527 -1.046020 5.542399
H -5.238957 -2.367618 6.443405
C 2.166210 2.079289 -1.929491
H -4.848823 0.970091 7.672985
H -3.250583 0.986948 7.743083
C 6.323397 3.706001 1.129207
H -3.989245 0.975148 6.323080
C 6.784899 2.431603 0.481725
H 1.071541 4.145972 1.452169
C 6.937752 3.803773 2.522965
C 4.084903 -1.062877 -7.055890
C 2.928156 -0.949935 -9.241791
H 2.098184 -1.258420 -5.178952
H 0.756782 0.133978 -8.727202
H -1.321877 0.865577 -5.357812
H 3.251996 -3.368931 -8.167761
H 2.449208 -3.193617 -6.793679
H 1.675726 -3.090789 -8.192290
H 2.101469 -1.157277 -9.726734
H -1.367801 3.266031 -9.019258
H -0.463804 3.254231 -7.698990
H 0.039961 2.504089 -9.021320
H 2.680846 8.247309 3.148153
H -2.504981 1.184176 -9.750866
H 3.803859 7.138111 3.416301
H -1.079496 0.459320 -9.778385
H -2.287787 -0.181250 -8.948446
H -3.289266 2.338889 -7.818372
H -3.142523 1.022348 -6.920399
H -2.430723 2.382718 -6.467712
H -3.189381 2.320346 -1.106513
H -1.983069 1.755633 -2.001377
H -3.882587 1.249919 -3.123166
H -3.370337 -0.128993 -2.492308
H -4.576435 0.668349 -1.803725
C -2.551778 -3.011560 0.405658
C -3.217456 -3.672359 1.504966
C -2.749907 -3.107646 2.656842
C -1.804582 -2.101276 2.270010
C -1.094811 -1.283706 3.154576
C -0.157998 -0.299250 2.783630
C 0.585584 0.499777 3.713548
C 1.332350 1.354433 2.985022
C 1.065830 1.088091 1.601627
C 1.667269 1.748890 0.519258
C 1.498730 1.433662 -0.836619
C 1.761257 1.464005 -3.071911
C 0.835245 0.430663 -2.682781
C 0.162332 -0.410507 -3.573536
C -0.762804 -1.416877 -3.215924
C -1.463542 -2.252990 -4.140241
C -2.272499 -3.058760 -3.398783
C -2.063438 -2.724989 -2.014242
C -2.731186 -3.308246 -0.938423
C -1.317358 -1.538248 4.622566
C -0.383307 -2.291761 5.332502
C -0.612776 -2.632275 6.659296
C -1.792055 -2.153533 7.260438
C -2.732934 -1.398334 6.595919
C -2.467852 -1.091535 5.251860
C 0.362813 -3.505474 7.450052
C 1.559083 -3.955559 6.608483
C -0.393641 -4.771443 7.929570
C -4.009125 -0.894306 7.253293
C -4.179839 -1.361248 8.685986
C -5.235137 -1.388220 6.460658
C -4.026370 0.651492 7.247700
C 0.376484 -0.216650 -5.060835
C 1.454724 -0.783049 -5.693522
C 1.628000 -0.675164 -7.078742
C 0.659414 0.046321 -7.785939
C -0.445775 0.644749 -7.171809
C -0.572974 0.486292 -5.802783
C 2.782692 -1.388220 -7.763508
C 2.515336 -2.895246 -7.725669
C -1.445503 1.438719 -8.014099
C -0.745474 2.733346 -8.481563
C -1.866430 0.656549 -9.227566
C -2.686361 1.829804 -7.237154
C -4.210753 -4.700644 1.400338
C -3.190882 -4.055016 -3.859374
C -2.764193 1.496033 -1.458497
C -3.729610 0.761063 -2.288147
N -1.698381 -2.058122 0.895552
N 0.153265 0.067561 1.504821
N 0.698233 0.416503 -1.312069
N -1.128427 -1.725362 -1.927438
N -5.016738 -5.499671 1.332489
N -3.928520 -4.840558 -4.233010
H 4.752136 5.678284 2.015987
O -2.363281 0.677283 -0.394322
H 3.618226 7.751710 1.948660
H 2.778393 2.802460 -1.867096
H 0.661961 7.711253 1.842374
H 1.580104 7.230825 0.623520
H 2.101023 5.624341 4.374919
H 0.979954 6.736911 4.121450
H 6.636728 5.710313 0.670219
H 7.874346 4.781486 0.258822
H 1.503240 -3.301503 9.160589
H 6.545645 4.784857 -0.633171
H 1.345915 -1.929333 8.353903
H 6.644929 4.634829 2.952209
H 0.128431 -2.485618 9.230192
H -3.427946 -1.040963 9.225164
H 4.331781 2.003432 0.413917
H 6.392582 2.360803 -0.413996
H 7.762454 2.438346 0.408036
H 6.502172 1.666290 1.023072
H 6.648602 3.038459 3.061604
H 7.914979 3.800401 2.449881
H 4.824240 -1.524762 -7.504079
H 4.240217 -0.095279 -7.086460
H 4.032245 -1.356191 -6.123063
H 3.677444 -1.430363 -9.654419
H 3.097126 0.014292 -9.282252
C 4.190055 4.971971 1.720493
C 2.820692 5.121999 1.829165
C 2.144308 6.377855 2.433282
C 3.152753 7.476939 2.766693
C 1.119294 6.944254 1.437633
C 1.438390 5.961484 3.734980
C 6.897364 4.848914 0.279113