64
Mn1 H30 C21 S1 N4 O4 F3
Mn -0.020313 -0.089377 0.317838
C -3.510179 -2.968862 -0.174039
C -3.240821 -3.905860 0.789713
H -2.800309 -1.249585 -0.961406
C -2.127850 -3.765050 1.602538
H -4.251848 -3.052306 -0.728651
C -1.334741 -2.638566 1.453429
H -3.805724 -4.635988 0.896998
C -0.182488 -2.370853 2.411726
H -1.918349 -4.413473 2.235341
H 0.184137 -3.226146 2.717217
H 1.643159 -0.411676 3.064531
C 4.106660 0.233270 2.149876
C 2.758936 0.862571 -0.657734
C -1.891227 3.459741 -1.712406
C 1.995755 -1.080960 2.440820
S -2.493353 1.806001 -1.221256
H 3.805503 0.937322 2.744493
C 2.762677 -2.120523 3.239098
H 4.694945 0.629626 1.489797
C 1.349484 -1.991882 -3.472617
H 3.075992 -2.817622 2.642662
C 3.949534 -1.489484 3.948274
C 0.617167 -1.522514 -2.407034
H 3.733487 0.834757 -0.557722
H 2.172521 -2.525570 3.893722
C 4.884804 -0.808031 2.957246
C -0.696887 -1.592050 3.615506
H 1.413082 2.258506 -1.310539
H 4.436810 -2.174414 4.431968
C 2.912320 -0.375170 1.453429
C 2.366122 2.220262 -1.206890
H 3.630607 -0.837584 4.591987
O -0.968115 1.229374 1.717097
H -0.680052 1.803046 2.398997
H 0.974441 -2.553385 -4.110875
H 5.266395 -1.468623 2.358992
O -1.274884 1.032934 -1.192343
C 2.340870 -0.222190 -1.623304
H -1.830434 1.455366 1.453429
H -0.252634 -1.837164 -2.312478
C 3.168584 -0.703727 -2.621606
O -3.044415 2.039468 0.078718
H 0.013918 -1.475577 4.250128
H 5.609639 -0.375170 3.435485
O -3.411976 1.413644 -2.221558
C 2.671020 -1.586834 -3.548990
H -1.417045 -2.077063 4.024646
N -1.572300 -1.722430 0.502406
H 3.246211 -1.047930 0.824262
H -1.013008 -0.731542 3.328199
N 0.853791 -1.645940 1.669818
N 2.139787 0.641794 0.664243
H 4.056155 -0.430798 -2.665247
H 2.786994 2.355857 -2.057902
N 1.053003 -0.660267 -1.508745
F -1.036390 3.906510 -0.837755
H 2.649509 2.905191 -0.595908
H 3.220024 -1.910177 -4.225434
F -1.328194 3.428450 -2.903458
F -2.901318 4.308080 -1.779686
H 1.078256 -2.143122 1.089749
H 2.219285 1.472750 1.126117
C -2.637572 -1.882362 -0.299509