15
H8 C7
H 0.290013 2.959498 0.376085
H -0.476107 2.433898 1.637889
H -1.253086 2.690586 0.301728
C -0.139497 0.886782 0.225768
C 1.114044 0.436268 -0.025919
C 1.360168 -0.861144 -0.402154
C 0.320175 -1.739473 -0.490305
C -1.000930 -1.364044 -0.203384
C -1.177077 -0.054409 0.124301
C -0.423022 2.391989 0.680450
H 1.829492 1.022984 0.060324
H 2.226427 -1.137040 -0.596273
H 0.492703 -2.616055 -0.748681
H -1.707932 -1.968222 -0.234483
H -2.043336 0.237203 0.290669