10
H6 C2 S1 O1
C -0.725937 0.052842 -1.416090
H 1.808461 -0.908998 -0.778029
C 1.273950 -0.975484 0.015876
H 0.785869 -1.801396 0.004706
O -0.776897 0.137058 1.216585
S 0.125997 0.393105 0.076288
H -1.153999 -0.804097 -1.352631
H -0.101963 0.045454 -2.145440
H -1.388414 0.731005 -1.568575
H 1.843567 -0.948890 0.786838