60
C60
C 0.758532 0.309120 -3.447246
C 3.474504 -0.570028 0.409121
C 0.739132 -0.314792 3.449718
C -2.306636 1.642021 -2.112350
C -0.754652 -0.314792 3.449718
C 1.185328 1.556942 -2.928120
C -3.024429 0.422558 -1.790986
C 2.601513 1.925617 1.422653
C -1.181448 -1.590974 2.930592
C -0.017460 -2.413402 2.584507
C -2.597633 -0.768545 -2.260671
C 0.001940 2.379370 -2.631476
C 1.418125 2.748045 1.744017
C 1.165928 -1.590974 2.930592
C -2.558834 -1.931289 -1.420181
C -1.433645 2.748045 1.744017
C -1.181448 1.556942 -2.928120
C -1.414245 -0.796905 -3.150602
C -1.394846 -2.725358 -1.766265
C -2.578233 1.953976 1.422653
C -0.696453 -2.044727 -2.804518
C 1.398726 -2.725358 -1.766265
C -3.470624 -0.541668 0.409121
C 0.700333 -2.044727 -2.779798
C -3.005029 -1.846210 -0.134726
C 2.562714 -1.931289 -1.420181
C 1.398726 -0.825264 -3.125882
C -2.287236 -2.498481 0.952968
C 3.474504 0.535996 -0.406649
C -1.162048 -3.264190 0.631604
C 2.601513 -0.796905 -2.260671
C 3.028309 1.840538 0.137198
C 3.047709 0.422558 -1.790986
C 0.758532 3.371956 0.681044
C -0.017460 -3.179111 1.521534
C 2.310516 1.642021 -2.112350
C -0.754652 3.371956 0.681044
C 1.165928 -3.264190 0.656324
C 2.271717 -2.498481 0.977688
C -3.024429 1.840538 0.137198
C 2.310516 2.521168 -0.950496
C 2.291116 -1.676052 2.114822
C 3.008909 -0.428230 1.793458
C -3.470624 0.564356 -0.406649
C 1.185328 3.230158 -0.653852
C 2.562714 0.791233 2.263143
C 1.398726 0.847952 3.128354
C -2.287236 2.521168 -0.950496
C 0.001940 3.173439 -1.494342
C -0.754652 -3.377628 -0.703293
C 3.008909 -1.846210 -0.110005
C 0.661533 2.067415 2.782270
C -3.005029 -0.428230 1.793458
C -0.657653 2.067415 2.782270
C -1.181448 3.230158 -0.653852
C 0.739132 -3.377628 -0.703293
C -1.394846 0.847952 3.153074
C -2.578233 0.791233 2.287864
C -0.735252 0.337479 -3.422526
C -2.306636 -1.647693 2.114822