12
H5 C6 Cl1
H 0.085947 -1.939047 -0.572134
Cl -2.100411 -0.226127 -0.250770
C -0.432028 -0.055970 -0.053008
H 2.375123 -1.669631 -0.300211
C 0.421563 -1.133634 -0.300211
C 1.798949 -0.963477 -0.127168
H 3.226774 0.377932 0.382070
C 2.303344 0.255986 0.268356
H 1.791189 2.153243 0.794899
H -0.496047 1.880991 0.522975
C 1.449753 1.333651 0.515559
C 0.072367 1.163493 0.367238