60
C60
C 0.874245 -3.155753 -1.471606
C 1.499666 -1.279238 -2.952770
C -1.822464 0.095727 -2.957936
C -0.331765 1.236323 3.261076
C 1.851606 -2.321399 -2.007010
C 0.495405 -3.052630 1.782890
C -2.266312 1.228510 -2.303594
C -0.262273 2.336294 -2.521408
C 2.900700 -1.780788 -1.140494
C 0.831653 -2.055781 2.783707
C -1.410000 2.375356 -2.108772
C -0.620938 2.897217 1.662070
C 3.160731 -0.407385 -1.572521
C 0.156916 -1.162054 -3.327682
C -2.607043 2.383168 -0.415505
C -1.934547 2.192548 1.854648
C 1.699173 1.141012 -2.830995
C 0.446089 0.123851 3.486861
C -3.411797 0.598839 0.689937
C -1.425692 2.981590 -0.812726
C 0.331765 1.236323 -3.261076
C 1.822464 0.095727 2.957936
C -2.772925 1.915993 0.820723
C 0.262273 2.336294 2.521408
C 2.266312 1.228510 2.303594
C -3.472321 0.187912 -0.706040
C -3.010541 1.298821 -1.381835
C 0.620938 2.897217 -1.662070
C -0.421431 3.353456 0.349331
C 1.410000 2.375356 2.108772
C -2.062321 -1.296425 -2.612941
C -3.259364 -1.074556 -1.134972
C 2.607043 2.383168 0.415505
C 1.934547 2.192548 -1.854648
C 0.753196 -3.476057 -0.037426
C -2.918633 -2.138591 -0.170966
C 1.425692 2.981590 0.812726
C 3.411797 0.598839 -0.689937
C -1.670032 -3.044818 -0.764753
C 2.772925 1.915993 -0.820723
C -2.286487 -0.101143 2.686912
C -0.753196 -3.476057 0.037426
C 3.010541 1.298821 1.381835
C 3.472321 0.187912 0.706040
C 0.421431 3.353456 -0.349331
C -0.874245 -3.155753 1.471606
C -1.499666 -1.279238 2.952770
C 3.259364 -1.074556 1.134972
C 2.062321 -1.296425 2.612941
C -0.495405 -3.052630 -1.782890
C -1.851606 -2.321399 2.007010
C 2.918633 -2.138591 0.170966
C -0.831653 -2.055781 -2.783707
C -2.900700 -1.780788 1.140494
C 1.670032 -3.044818 0.764753
C -3.160731 -0.407385 1.572521
C -0.156916 -1.162054 3.327682
C 2.286487 -0.101143 -2.686912
C -0.446089 0.123851 -3.486861
C -1.699173 1.141012 2.830995