244
Zn2 H118 C114 N8 O2
C 10.811740 -6.643085 -0.704484
H -4.792609 -6.922590 7.489549
H -5.139545 -5.461122 7.102578
H -1.427599 -4.538570 10.838826
H -2.546142 -5.040950 9.891268
C -5.960019 9.601137 -2.936500
C 0.753147 -0.283870 0.075964
C -6.269875 9.939101 -4.265694
C 1.249098 -1.336127 0.415820
C 4.645509 -10.103111 3.010408
C -7.008759 11.084527 -4.528192
C 4.530168 -11.084122 2.022745
C -7.419303 11.904776 -3.505702
C 4.946825 -12.373867 2.279214
C -7.137717 11.568639 -2.213565
C 5.499402 -12.724620 3.494123
C -6.415348 10.403118 -1.908217
C -0.442577 1.866315 -0.655084
C 5.629387 -11.752743 4.472388
C 0.134130 0.867036 -0.317206
C 5.205903 -10.461171 4.239178
H 0.932849 -4.850959 10.290139
H 1.350843 -5.539676 8.963194
H 0.710668 -4.127532 8.937797
Zn 3.292802 -5.419105 2.099206
Zn -3.245005 5.528390 -2.201456
H -3.742951 3.793627 -4.243694
H -2.794185 1.046066 0.305283
H -5.183568 1.612385 0.507392
H -8.254509 5.605848 -1.125562
H -7.818021 7.878431 -2.025047
H -3.483868 10.501767 -3.561868
H -1.092584 9.953716 -3.741762
H 1.795398 5.487103 -3.130392
H 1.393699 3.327784 -2.010884
H -0.052071 8.263893 -5.602034
H 3.716237 9.619405 -5.323585
C -9.882625 -0.864804 0.343967
H 1.947941 7.882085 -2.154950
H 0.414511 9.844106 -8.672218
H 0.158844 8.484940 -7.840813
H -0.228009 9.929967 -7.219955
H 1.665389 11.535756 -6.613989
H 3.138217 11.115583 -6.913005
H 2.102611 11.316535 -8.076184
H 3.674438 8.839346 -7.690460
H 2.555470 7.759687 -7.822712
H 2.656751 8.897805 -8.892930
H 3.927398 10.854346 -2.195599
H 3.380045 -1.474967 -1.192261
H 5.379627 -2.801249 -1.819764
H 5.557419 7.377878 -3.468050
H 7.191506 -7.602173 -0.401048
H 5.007191 8.684065 -0.892456
H 6.411581 -9.368723 1.088369
H 4.429727 7.387012 -1.519692
H 2.566740 -9.792549 4.739171
H 3.472589 8.506862 -1.042453
H -3.256689 4.933572 -6.064863
H 0.827804 -8.254353 5.612256
H -2.204137 5.697189 -5.217831
H -1.045213 -3.553906 4.123654
H -3.670369 6.203223 -5.276153
H -0.500737 -1.944464 2.349520
C -8.875722 -0.161472 -0.579164
H 5.691475 -5.000759 -3.055417
C -7.635584 -1.045661 -0.714900
H 9.634563 -4.872881 -3.766221
C -7.150186 3.226212 -0.120605
H 8.289631 -5.272958 0.001308
C -9.510667 0.008424 -1.963002
C -7.477836 1.961311 -0.648271
C -8.478568 1.246470 0.016876
H 5.793982 -5.064699 -6.482241
C -9.160469 1.740264 1.112596
H 5.488314 -5.574386 -5.024100
C -8.788554 2.998953 1.581962
H 5.486162 -4.021576 -5.327759
C -7.770109 3.760744 1.006654
H 8.808896 -3.343820 -5.411276
C -0.394848 -5.872160 5.393929
H 7.765024 -3.334685 -6.603940
C -1.701938 -6.208298 5.053842
H 7.698044 -6.758175 -5.705790
C -2.723388 -6.200990 5.999109
H 8.063855 -5.771684 -6.850993
H 9.027280 -5.950714 -5.628490
H 5.289954 -9.810817 4.901198
C -9.507487 3.601809 2.866266
H 5.513034 10.529169 -2.221845
C -9.218634 2.728582 4.091418
H 10.716036 -3.250651 -0.629544
C -11.023214 3.658441 2.648226
H 4.747072 10.856173 -3.601464
H 11.746562 -4.111091 -2.620081
C -8.996626 5.023087 3.142753
H 11.394603 -5.545156 -3.194604
H 6.345253 8.733390 -3.360124
H 5.396583 8.492248 -4.585384
C -4.171807 -6.535301 5.601778
C -4.279105 -7.978501 5.118735
C -4.645958 -5.618230 4.480213
C -5.110861 -6.358098 6.793892
H 11.772906 -6.705197 -0.328342
H 10.110447 -6.814807 0.048772
H 10.717146 -7.361031 -1.466550
H 12.551061 -5.375261 -2.147421
C 5.778827 -4.861920 3.823581
H 4.128159 -10.912399 1.205242
N 3.626949 -4.178683 0.466388
H -3.009322 -6.063978 7.984544
N 4.675070 -6.718898 1.316373
H 4.935771 -12.985857 1.578068
H 6.000342 -11.975617 5.298521
H -5.965346 9.403839 -4.950285
N 2.609865 -6.931725 3.352312
H -7.240296 11.290960 -5.403789
N 1.542752 -4.396077 2.482783
N -3.555876 3.815183 -1.091801
H -7.866806 12.695796 -3.677422
N -5.194326 6.091603 -1.767498
H -7.411077 12.111209 -1.519647
N -2.838144 7.468306 -2.779376
H -6.267516 10.152841 -1.028862
N -1.197204 5.208328 -2.089163
H 0.825888 -5.683996 6.974603
O 4.560146 -4.352233 3.408078
O -3.440540 4.687497 -4.135488
H -10.133756 -1.727070 0.034058
H -10.659863 -0.327714 0.443891
H -9.442851 -0.943358 1.180605
H -9.764698 -0.862977 -2.242511
H -10.287914 0.549167 -1.872362
H -11.447919 2.829058 2.465477
H -7.911086 -1.906100 -1.009594
H -7.185085 -1.126041 0.117821
H -7.045951 -0.665679 -1.357031
H -7.047056 1.597770 -1.413219
H -9.728264 1.210481 1.659890
H -7.584420 4.675988 1.184514
H -8.931769 0.393886 -2.610500
H -1.692683 -3.807836 9.495477
H -9.614413 3.125005 4.860096
H -9.637482 1.895545 3.914701
H -1.914093 -6.328869 4.157500
H -8.291382 2.591569 4.247785
H -0.464569 -6.781924 10.830675
H -11.397512 4.040250 3.434698
C -2.367285 -5.967155 7.325703
H -5.524338 -5.903216 4.252983
H -11.154400 4.248509 1.917000
C -1.058005 -5.722359 7.728447
H -9.398176 5.390281 3.922205
C -0.073620 -5.718706 6.743144
H -8.068424 4.895209 3.293539
H -4.084397 -5.680342 3.716106
H -9.120025 5.616809 2.411998
H -4.675632 -4.715773 4.779595
H -5.982442 -6.633950 6.535576
H -0.071830 -7.503524 9.516088
H -5.164389 -8.232431 4.882766
C -0.688044 -5.568905 9.222854
H -3.957915 -8.548474 5.805553
C -1.679728 -4.653661 9.929572
H -3.715565 -8.051575 4.357662
C -0.704926 -6.926244 9.924661
H -1.567413 -7.324494 9.884599
C 0.709968 -4.969703 9.373906
H 4.252866 -3.513715 3.729164
H 6.165038 -4.218874 4.406577
H 5.683543 -5.687650 4.281250
H 6.342492 -4.982491 3.067498
C -2.613913 2.905785 -0.734134
C -3.220188 1.815164 -0.023660
C -4.530848 2.092843 0.048285
C -4.762187 3.331437 -0.627638
C -6.182529 5.282498 -1.281516
C -7.448437 5.960254 -1.355776
C -7.205108 7.193368 -1.871321
C -5.787183 7.264614 -2.126655
C -3.754157 8.479094 -2.923782
C -3.087930 9.676037 -3.370304
C -1.774293 9.378263 -3.498505
C -1.616602 7.978907 -3.153147
C -0.226287 5.956600 -2.711657
C 1.010604 5.194810 -2.754712
C 4.662345 10.461576 -2.708293
C 0.782715 4.020154 -2.133233
C -0.603263 4.031115 -1.721075
C -5.999776 3.988733 -0.739205
C -5.128355 8.384464 -2.644070
C -0.412015 7.270095 -3.177870
C 5.531528 8.324179 -3.643460
C -1.244741 2.984339 -1.046201
C 0.772313 7.958812 -3.795310
H 5.744429 -13.610635 3.651367
C 0.720454 8.404560 -5.100662
C 1.805493 9.045779 -5.697200
C 2.963929 9.204713 -4.938473
H 7.383242 -2.702600 -5.201728
C 3.057693 8.760792 -3.621986
C 1.929673 8.156110 -3.055128
C 1.780789 9.542678 -7.149343
C 2.979624 -3.011336 0.192831
C 0.405855 9.431241 -7.779360
C 2.224239 11.024242 -7.187790
C 3.644401 -2.298870 -0.855832
C 2.767470 8.676758 -7.954509
C 4.720403 -3.033258 -1.194371
C 4.370018 8.959918 -2.861164
C 4.711834 -4.217047 -0.373713
C 5.606560 -6.431172 0.356448
C 6.477997 -7.576597 0.168877
C 4.332682 8.335140 -1.464730
C 6.053610 -8.526552 1.013450
C -3.116682 5.432298 -5.269844
C 4.927496 -8.007731 1.745123
C 3.135596 -8.188587 3.488907
C 2.400683 -8.915668 4.486685
C 1.451106 -8.075324 4.952037
C 1.565801 -6.849517 4.226006
C 0.631186 -4.662795 3.481047
C -0.324838 -3.595923 3.538682
C -0.032791 -2.726349 2.567862
C 1.150746 -3.214114 1.908489
C 5.664841 -5.249209 -0.416680
C 4.225614 -8.694621 2.745094
C 0.671156 -5.773511 4.336643
C 1.810838 -2.572895 0.848141
C 6.807770 -5.123157 -1.378451
C 6.566719 -5.004413 -2.743775
C 7.619078 -4.905764 -3.646688
H 10.331827 -4.282813 0.508134
C 8.924242 -4.947781 -3.166229
C 9.199518 -5.108543 -1.813610
C 8.126580 -5.165175 -0.915965
C 7.377968 -4.765098 -5.154498
C 5.897753 -4.869227 -5.544274
H 11.824659 -4.158588 0.005750
C 7.869519 -3.413239 -5.634959
C 8.118841 -5.925138 -5.905461
C 10.635488 -5.227287 -1.290186
C 10.897707 -4.134839 -0.254424
C 11.682805 -5.064699 -2.408121