23
H16 C7
C -2.721508 2.120632 -1.691849
C -1.912068 0.836305 -1.540076
C -0.891559 0.873794 -0.420763
C -0.087552 -0.398037 -0.252175
C 0.954881 -0.343887 0.852539
C 1.781896 -1.604610 0.976698
C 2.865006 -1.525468 2.053041
H -3.317418 2.053986 -2.448948
H -3.229636 2.267809 -0.878867
H -2.110114 2.855129 -1.839334
H -2.522496 0.090701 -1.374373
H -1.452330 0.682186 -2.375507
H -1.363669 1.066790 0.407003
H -0.276028 1.605513 -0.605406
H -0.704610 -1.131145 -0.061918
H 0.381639 -0.572983 -1.093533
H 0.510861 -0.168941 1.700859
H 1.557460 0.398940 0.676420
H 1.176707 -2.343272 1.209690
H 2.203218 -1.804549 0.106895
H 3.292535 -2.387703 2.169315
H 2.456969 -1.249164 2.887609
H 3.526853 -0.871503 1.789224