276
Zn2 H122 C136 N16
H 8.721137 2.698014 -1.679227
C 1.509453 0.760951 3.267486
C 2.017696 0.472880 1.997300
H 7.463022 2.073155 -2.429315
C 1.004692 0.176073 0.982133
C 0.339162 0.074533 -1.403538
H 10.162855 2.164501 -3.545292
C 1.299170 0.216980 -0.389483
H 9.865260 2.676832 -5.025820
H 8.980423 1.499926 -4.383188
C 3.418666 0.521598 1.866098
H 10.070965 4.444176 -2.775099
C 4.252099 0.857857 2.978011
H 9.691022 5.027996 -4.191683
C 3.653081 1.209208 4.241878
H 8.750318 5.312624 -2.913115
C 4.580164 1.330473 5.318488
C 4.108179 0.099289 0.682323
C -1.986617 3.549251 5.568404
C -2.566711 4.739396 5.158773
C -3.881930 4.744691 4.816147
C -4.609827 3.582348 4.924076
C -3.957941 2.421328 5.322454
C 3.784176 -3.011767 -12.310144
C 3.738545 -2.130080 -13.359413
C 3.250913 -0.859181 -13.158452
C 2.833758 -0.456729 -11.883855
H -4.288460 5.521793 4.489971
H -5.517128 3.559842 4.714898
C 5.695978 6.106936 -8.398283
C 7.268240 7.193820 -6.857240
C 4.883206 7.068054 -6.188755
C -8.537481 -3.394361 3.617886
C -7.984416 -2.884677 2.272989
C -9.468328 -2.337925 4.197700
C -9.337020 -4.667908 3.358262
N 3.088725 0.287806 -7.377062
N 2.420868 0.651204 -4.552186
N 0.060361 0.814302 5.030570
N -0.653917 1.248659 7.763618
H -2.489151 -0.402451 11.760397
N 5.451146 1.296053 6.078069
N 5.597918 0.798284 2.883231
N -4.739683 0.244913 0.213119
N -2.663207 2.395248 5.614629
Zn 1.694549 -0.545547 -6.108094
H -4.517918 -4.107918 6.961603
H -7.898360 -5.476782 5.237287
H -6.487163 -1.818975 4.316099
H -7.412667 -3.575728 1.874272
H -2.411032 -2.151262 1.710604
H -4.178959 -3.035596 3.270713
H -3.435056 -2.193625 -8.537976
H -4.110635 3.889482 12.435303
H -6.661616 -2.361755 -10.122019
H -4.041642 2.400146 14.217148
H -5.437986 -1.713066 -9.326173
H -3.195510 0.260799 13.874690
H -6.640290 -2.384260 -8.540059
H -7.005945 -4.817503 -10.115330
H -7.029770 -4.808236 -8.539339
H -6.028309 -5.782592 -9.347903
H -5.109852 -3.896101 -11.381949
H -3.882442 -3.201078 -10.620372
H -4.069565 -4.793674 -10.546684
H -5.200013 -5.590634 -7.239221
H -2.081539 -4.027163 -5.191297
H -3.246336 -6.564990 -3.099842
C 8.537481 3.394361 -3.617886
H -2.226113 -5.542975 -3.807974
H -3.708847 -5.049177 -3.383491
C 7.984416 2.884677 -2.272989
H -5.161866 -7.336796 -4.206463
C 9.468328 2.337925 -4.197700
H -5.715368 -5.917625 -4.587746
C 9.337020 4.667908 -3.358262
H -5.479521 -6.989947 -5.713198
H -3.012732 -8.062268 -5.024614
H -2.011368 -7.030986 -5.642599
H -3.235323 -7.535374 -6.484162
H -4.869861 -0.440843 10.042861
H -5.771865 -1.854719 8.192109
H 3.404988 -3.254032 -10.316483
H 5.517128 -3.559842 -4.714898
H 0.546423 -2.569600 -10.680277
H -1.416600 -3.190487 -9.255007
H -2.195609 -0.354793 0.650971
H 1.070428 -3.529394 -5.817851
Zn -1.694549 0.545547 6.108094
H 2.057266 -5.525765 -5.115767
H 4.517918 4.107918 -6.961603
H 7.898360 5.476782 -5.237287
H 6.487163 1.818975 -4.316099
H 4.447309 -1.605834 -5.381386
H 7.412667 3.575728 -1.874272
H 2.411032 2.151262 -1.710604
H 4.178959 3.035596 -3.270713
H 3.435056 2.193625 8.537976
H 6.661616 2.361755 10.122019
H 5.437986 1.713066 9.326173
H 6.640290 2.384260 8.540059
H 7.005945 4.817503 10.115330
H 7.029770 4.808236 8.539339
H 6.028309 5.782592 9.347903
H 5.109852 3.896101 11.381949
H -5.978471 -0.622211 -2.103744
H 3.882442 3.201078 10.620372
H -6.063625 -1.029958 -3.572990
H 4.069565 4.793674 10.546684
H -5.726251 -6.926402 8.892347
H 5.200013 5.590634 7.239221
H -6.347774 -5.496640 8.760867
H 2.081539 4.027163 5.191297
H -4.821764 -5.720371 8.464869
H 3.246336 6.564990 3.099842
H -7.089028 -8.076831 7.178609
H 2.226113 5.542975 3.807974
H -7.560036 -7.233536 5.946075
H 3.708847 5.049177 3.383491
H -7.947088 -6.780778 7.393869
H 5.161866 7.336796 4.206463
H -4.861218 -7.996075 6.430436
H 5.715368 5.917625 4.587746
H -5.019168 -6.980680 5.240815
H 5.479521 6.989947 5.713198
H -4.048197 -6.660307 6.435972
H 3.012732 8.062268 5.024614
H 2.011368 7.030986 5.642599
H 3.235323 7.535374 6.484162
H 4.869861 0.440843 -10.042861
H 5.771865 1.854719 -8.192109
H -3.404988 3.254032 10.316483
H -0.546423 2.569600 10.680277
H 1.416600 3.190487 9.255007
H 2.195609 0.354793 -0.650971
C -4.104188 -1.148708 7.043771
H -1.070428 3.529394 5.817851
C -4.259578 -1.780715 5.792279
H -2.057266 5.525765 5.115767
C -5.344795 -2.814777 5.666870
C -5.243028 -4.012468 6.379792
C -6.182106 -5.033291 6.221621
H -4.447309 1.605834 5.381386
C -7.242312 -4.808898 5.330672
C -7.379459 -3.629345 4.603077
C -6.417409 -2.626658 4.793628
C -6.019339 -6.382298 6.942430
C -3.444646 -1.572473 4.659918
C -1.894183 -0.798548 3.290799
C -2.599632 -1.854057 2.588037
C -3.551422 -2.331306 3.437404
H 4.110635 -3.889482 -12.435303
C -0.736926 -0.110807 2.829887
C -0.182173 -0.499622 -3.706811
H 4.041642 -2.400146 -14.217148
C -1.270642 -1.345035 -5.459427
C -3.784176 3.011767 12.310144
C -1.459868 -1.992400 -6.693190
C -3.738545 2.130080 13.359413
C -2.598925 -2.950472 -6.837664
C -3.250913 0.859181 13.158452
C -3.495366 -2.902549 -7.909742
C -2.833758 0.456729 11.883855
C -4.475145 -3.885378 -8.082342
H 5.978471 0.622211 2.103744
C -5.406203 -3.799460 -9.308653
H 6.063625 1.029958 3.572990
C -6.094844 -2.435891 -9.338388
H 3.195510 -0.260799 -13.874690
C -6.458807 -4.907525 -9.326071
H 5.726251 6.926402 -8.892347
C -4.537324 -3.931845 -10.587160
H 6.347774 5.496640 -8.760867
C -4.550513 -4.917057 -7.142864
H 4.821764 5.720371 -8.464869
C -3.678827 -4.985897 -6.042779
H 7.089028 8.076831 -7.178609
H 7.947088 6.780778 -7.393869
C -2.708747 -3.994860 -5.916358
H -8.721137 -2.698014 1.679227
C -3.746908 -6.153271 -5.043929
H 5.019168 6.980680 -5.240815
H 4.861218 7.996075 -6.430436
H 4.048197 6.660307 -6.435972
C -3.162496 -5.801126 -3.691718
H -7.463022 -2.073155 2.429315
C -5.149866 -6.641773 -4.871174
H -10.162855 -2.164501 3.545292
C -2.926662 -7.302376 -5.599511
H -9.865260 -2.676832 5.025820
C -0.531385 -1.946594 -7.768424
H -8.980423 -1.499926 4.383188
C 1.233504 -1.466565 -8.999035
H -10.070965 -4.444176 2.775099
C 2.458342 -0.930140 -9.433618
H -9.691022 -5.027996 4.191683
C 3.297102 -0.082211 -8.684085
H -8.750318 -5.312624 2.913115
C -4.506030 -0.542912 9.181247
C -4.996581 -1.308762 8.171618
C 2.906909 -1.331267 -10.814742
C 3.369480 -2.629173 -11.033223
C 4.104188 1.148708 -7.043771
C 4.259578 1.780715 -5.792279
C 0.387625 -2.308668 -9.799363
C -0.692646 -2.629173 -9.030535
C 5.344795 2.814777 -5.666870
C -2.252213 -1.204972 -4.366768
C 5.243028 4.012468 -6.379792
C -1.509453 -0.760951 -3.267486
C 6.182106 5.033291 -6.221621
C -2.017696 -0.472880 -1.997300
C 7.242312 4.808898 -5.330672
C -1.004692 -0.176073 -0.982133
C 7.379459 3.629345 -4.603077
C 6.417409 2.626658 -4.793628
C -0.339162 -0.074533 1.403538
C -1.299170 -0.216980 0.389483
C -3.418666 -0.521598 -1.866098
C -4.252099 -0.857857 -2.978011
C -3.653081 -1.209208 -4.241878
C -4.580164 -1.330473 -5.318488
C 6.019339 6.382298 -6.942430
C -4.108179 -0.099289 -0.682323
C 3.444646 1.572473 -4.659918
C 1.894183 0.798548 -3.290799
C 1.986617 -3.549251 -5.568404
C 2.599632 1.854057 -2.588037
C 2.566711 -4.739396 -5.158773
C 3.551422 2.331306 -3.437404
C 3.881930 -4.744691 -4.816147
C 0.736926 0.110807 -2.829887
C 4.609827 -3.582348 -4.924076
C 3.957941 -2.421328 -5.322454
C 0.182173 0.499622 3.706811
C 1.270642 1.345035 5.459427
H 2.489151 0.402451 -11.760397
C 1.459868 1.992400 6.693190
C 2.598925 2.950472 6.837664
C 3.495366 2.902549 7.909742
C 4.475145 3.885378 8.082342
C 5.406203 3.799460 9.308653
C 6.094844 2.435891 9.338388
C 6.458807 4.907525 9.326071
C 4.537324 3.931845 10.587160
C 4.550513 4.917057 7.142864
C 3.678827 4.985897 6.042779
C 2.708747 3.994860 5.916358
C -5.695978 -6.106936 8.398283
C 3.746908 6.153271 5.043929
C -7.268240 -7.193820 6.857240
C 3.162496 5.801126 3.691718
C -4.883206 -7.068054 6.188755
C 5.149866 6.641773 4.871174
C 2.926662 7.302376 5.599511
C 0.531385 1.946594 7.768424
C -1.233504 1.466565 8.999035
C -2.458342 0.930140 9.433618
C -3.297102 0.082211 8.684085
C 4.506030 0.542912 -9.181247
C 4.996581 1.308762 -8.171618
N -3.088725 -0.287806 7.377062
N -2.420868 -0.651204 4.552186
C -2.906909 1.331267 10.814742
C -3.369480 2.629173 11.033223
N -0.060361 -0.814302 -5.030570
N 0.653917 -1.248659 -7.763618
N -5.451146 -1.296053 -6.078069
N -5.597918 -0.798284 -2.883231
N 4.739683 -0.244913 -0.213119
N 2.663207 -2.395248 -5.614629
C -0.387625 2.308668 9.799363
H 4.288460 -5.521793 -4.489971
C 0.692646 2.629173 9.030535
H 7.560036 7.233536 -5.946075
C 2.252213 1.204972 4.366768