260
Zn2 H120 C126 N10 O2
C -2.704632 1.562019 -2.265867
C -2.351063 2.863008 -1.721686
C -3.292451 3.741904 -2.128072
C -4.240211 3.014350 -2.939982
H -4.012695 9.771994 -4.900538
H -4.621280 9.844194 -3.463778
C -6.067203 -0.591485 -6.973943
H -6.656103 10.251013 -5.131125
C -6.140149 -1.699477 -7.895970
H -7.624770 9.040274 -4.876307
C -5.065381 -2.490900 -7.652991
H -6.962377 9.777547 -3.665252
C -4.339314 -1.889696 -6.561681
C -3.183567 -2.420089 -5.987489
H -5.518303 8.920867 -6.667035
C -2.513182 -1.902193 -4.853125
H -6.086085 7.464370 -6.374613
C -1.305353 -2.435362 -4.301104
H -4.530417 7.772609 -6.185459
C -1.000340 -1.678650 -3.205337
H -3.890850 -6.946474 -4.736476
C -2.014004 -0.659519 -3.110218
H -2.003744 -9.384613 -6.363599
C -1.948351 0.372108 -2.146456
H -2.581879 -8.616793 -7.584768
C 0.126492 -1.743908 -2.283531
H -1.071864 -8.471005 -7.214141
C 0.069456 -0.790035 -1.146366
C -0.960720 0.184665 -1.055260
C 1.015216 -0.916385 -0.131668
H 7.678695 -4.433358 4.949217
H 8.495642 -2.840793 6.651555
H -6.558435 8.876436 -0.018616
H 6.804036 1.835546 8.531195
H -5.477335 7.929505 0.638850
H -8.698754 7.951720 -0.760202
H 6.322548 -4.572204 1.243132
H 5.219980 -5.852366 4.871753
H 9.596481 0.016662 6.592440
H 11.284750 0.317958 8.140668
H 10.809719 0.113854 10.431442
H 8.685775 -0.458192 11.132829
H -7.292881 -1.196854 -4.487862
H 7.002007 -0.816415 9.546933
C -2.607448 -3.641935 -6.632429
H -8.674691 -2.532554 -3.204332
C -2.713712 -4.895716 -6.037711
H -7.931992 -3.197627 -1.081229
C -6.916959 5.721851 0.909370
C -2.206142 -6.042585 -6.644536
C -1.556057 -5.878747 -7.870890
C -1.413314 -4.643016 -8.493970
C -1.956999 -3.532247 -7.858319
C -0.684504 -4.440301 -9.839080
C 0.366822 -3.346193 -9.681967
C -1.712449 -4.002935 -10.901692
C 0.020559 -5.714908 -10.318901
H -9.032152 6.411916 -0.591851
H 6.526617 -8.464063 2.130808
C -5.371925 3.590562 -3.531873
C -2.300018 -7.395919 -5.943892
C -6.175594 2.975473 -4.511372
C -7.323816 3.593339 -5.148581
C -7.779571 2.721385 -6.078940
C -6.327599 7.593497 -2.378290
C -6.913731 1.568962 -6.040062
C -5.859242 7.364401 -3.674142
C -6.994835 0.472077 -6.921597
C -5.598613 -1.138539 -1.873064
C -6.366914 -1.953566 -1.051973
C -5.635984 8.509882 -4.655912
N -3.838524 1.693646 -3.034843
N -4.971881 -0.729081 -6.158873
N -2.918915 -0.806141 -4.122290
N -5.903937 -0.894169 -3.142330
H 7.292881 1.196854 4.487862
O 1.022605 -2.581150 -2.397737
Zn 4.641542 -0.301157 4.372907
H 8.674691 2.532554 3.204332
H 1.599617 -3.044897 1.181799
H 7.931992 3.197627 1.081229
H 3.335164 -4.649958 1.927291
C -5.714613 4.998462 -3.123526
C -6.205799 5.267824 -1.853759
C -6.521059 6.568812 -1.458913
H 4.836296 3.285100 8.098026
H 0.819006 3.150420 4.640457
C -5.539865 6.045362 -4.023197
C -3.692014 -7.625432 -5.390029
C -7.089225 6.882605 -0.062850
H -1.717669 1.528696 0.257434
C -1.952757 -8.566809 -6.855428
C -1.308531 -7.394947 -4.768016
C -8.116821 0.410985 -7.906367
H 9.032152 -6.411916 0.591851
H 4.012695 -9.771994 4.900538
C -9.414691 0.093027 -7.506595
H 4.621280 -9.844194 3.463778
C -10.423956 -0.094415 -8.448230
H 6.656103 -10.251013 5.131125
C -10.141134 0.031935 -9.792333
H 7.624770 -9.040274 4.876307
C -8.873210 0.365165 -10.211705
H 6.962377 -9.777547 3.665252
C -7.865992 0.569269 -9.261577
H 5.518303 -8.920867 6.667035
H 3.151733 4.963751 5.214592
H 6.086085 -7.464370 6.374613
H 1.198235 6.635459 8.285729
H 4.530417 -7.772609 6.185459
H 1.884513 2.689450 8.261116
H -0.842930 3.233727 10.516479
C -4.381802 9.245767 -4.176187
H 0.035345 2.503396 9.440932
C -6.824707 9.483194 -4.572402
H -1.006985 3.598893 8.989694
C -5.434792 8.129443 -6.111577
H 1.232876 3.825212 11.714736
H 2.352686 4.712439 11.044778
H 2.169251 3.193462 10.616352
C 5.371925 -3.590562 3.531873
H -0.487276 5.535797 11.144042
C 6.175594 -2.975473 4.511372
H 0.618808 6.425801 10.475750
C 7.323816 -3.593339 5.148581
H -0.650436 6.000932 9.654384
C 7.779571 -2.721385 6.078940
H 6.558435 -8.876436 0.018616
C 6.913731 -1.568962 6.040062
H 5.477335 -7.929505 -0.638850
C 6.994835 -0.472077 6.921597
C -6.421062 8.110005 0.540227
H -3.708959 -8.491832 -4.968643
C -8.583517 7.172793 -0.197968
H 8.698754 -7.951720 0.760202
C -7.461731 -2.563100 -1.581057
H -4.314617 -7.607382 -6.138350
C -7.043078 -1.402346 -3.602428
C -7.863906 -2.221539 -2.847282
C 5.714613 -4.998462 3.123526
C 6.205799 -5.267824 1.853759
H -1.314901 -8.257182 -4.308655
C 6.521059 -6.568812 1.458913
C 5.539865 -6.045362 4.023197
C 7.089225 -6.882605 0.062850
H -0.408476 -7.228332 -5.086376
H 3.708959 8.491832 4.968643
C 8.116821 -0.410985 7.906367
N -5.955452 1.738493 -5.060913
C 9.414691 -0.093027 7.506595
H 4.314617 7.607382 6.138350
C 10.423956 0.094415 8.448230
H 1.314901 8.257182 4.308655
H 0.408476 7.228332 5.086376
H 3.890850 6.946474 4.736476
C 8.873210 -0.365165 10.211705
C 10.141134 -0.031935 9.792333
C 7.865992 -0.569269 9.261577
H 2.003744 9.384613 6.363599
H 2.581879 8.616793 7.584768
H 1.071864 8.471005 7.214141
H -6.127914 -2.088246 -0.157519
H 4.834665 0.731719 1.520462
C 6.327599 -7.593497 2.378290
C 5.859242 -7.364401 3.674142
H 3.713781 -8.634843 3.826790
C 5.635984 -8.509882 4.655912
C 7.461731 2.563100 1.581057
H 1.558017 6.702105 4.126769
C 2.704632 -1.562019 2.265867
C 2.351063 -2.863008 1.721686
C 3.292451 -3.741904 2.128072
C 4.240211 -3.014350 2.939982
C 7.043078 1.402346 3.602428
C 7.863906 2.221539 2.847282
C 6.067203 0.591485 6.973943
Zn -4.641542 0.301157 -4.372907
C 6.140149 1.699477 7.895970
H -1.599617 3.044897 -1.181799
C 5.065381 2.490900 7.652991
H -3.335164 4.649958 -1.927291
C 4.339314 1.889696 6.561681
C 3.183567 2.420089 5.987489
H 7.219093 -5.989824 -1.780783
C 2.513182 1.902193 4.853125
H 7.460265 -4.976247 -0.608539
C 1.305353 2.435362 4.301104
H -4.836296 -3.285100 -8.098026
C 1.000340 1.678650 3.205337
H -0.819006 -3.150420 -4.640457
H 1.717669 -1.528696 -0.257434
C 2.014004 0.659519 3.110218
C 1.948351 -0.372108 2.146456
N 5.955452 -1.738493 5.060913
C -0.126492 1.743908 2.283531
C 6.916959 -5.721851 -0.909370
C -0.069456 0.790035 1.146366
C 0.960720 -0.184665 1.055260
C 4.381802 -9.245767 4.176187
C 6.824707 -9.483194 4.572402
C -1.015216 0.916385 0.131668
C 2.300018 7.395919 5.943892
C 5.434792 -8.129443 6.111577
H -6.812904 8.272455 1.404981
H -3.151733 -4.963751 -5.214592
H -8.954846 7.356070 0.674044
H -1.198235 -6.635459 -8.285729
H -1.884513 -2.689450 -8.261116
H 0.842930 -3.233727 -10.516479
H -0.035345 -2.503396 -9.440932
H 1.006985 -3.598893 -8.989694
C 6.421062 -8.110005 -0.540227
H -1.232876 -3.825212 -11.714736
C 8.583517 -7.172793 0.197968
H -2.352686 -4.712439 -11.044778
H -2.169251 -3.193462 -10.616352
H 0.487276 -5.535797 -11.144042
H 6.812904 -8.272455 -1.404981
H -0.618808 -6.425801 -10.475750
C 2.607448 3.641935 6.632429
H 0.650436 -6.000932 -9.654384
C 2.713712 4.895716 6.037711
C 2.206142 6.042585 6.644536
H 8.954846 -7.356070 -0.674044
C 1.556057 5.878747 7.870890
C 1.413314 4.643016 8.493970
H -7.219093 5.989824 1.780783
H -3.713781 8.634843 -3.826790
H -7.460265 4.976247 0.608539
C 1.956999 3.532247 7.858319
H -5.989032 5.459432 0.962586
C 0.684504 4.440301 9.839080
C -0.366822 3.346193 9.681967
C 1.712449 4.002935 10.901692
C -0.020559 5.714908 10.318901
C 3.692014 7.625432 5.390029
C 1.308531 7.394947 4.768016
C 1.952757 8.566809 6.855428
H -6.526617 8.464063 -2.130808
C 6.366914 1.953566 1.051973
C 5.598613 1.138539 1.873064
H 6.127914 2.088246 0.157519
H -7.678695 4.433358 -4.949217
H -4.834665 -0.731719 -1.520462
H -8.495642 2.840793 -6.651555
N 3.838524 -1.693646 3.034843
H -6.804036 -1.835546 -8.531195
N 4.971881 0.729081 6.158873
N 2.918915 0.806141 4.122290
N 5.903937 0.894169 3.142330
H -6.322548 4.572204 -1.243132
O -1.022605 2.581150 2.397737
H -5.219980 5.852366 -4.871753
H -9.596481 -0.016662 -6.592440
H -11.284750 -0.317958 -8.140668
H -10.809719 -0.113854 -10.431442
H -8.685775 0.458192 -11.132829
H 5.989032 -5.459432 -0.962586
H -7.002007 0.816415 -9.546933
H -1.558017 -6.702105 -4.126769