18
H12 C6
C -0.521339 -1.114007 0.771459
C -0.699669 0.302516 1.251728
C 0.407063 1.201413 0.718905
H 1.289327 1.675353 -1.062750
H -0.301697 1.515166 -1.123432
H 1.544278 -0.662573 -0.953607
H 0.666169 -0.356763 -2.217093
C 0.531394 1.145811 -0.759001
H -1.269415 -0.871742 -1.086890
H -0.236765 -2.136022 -0.987660
H 0.333656 -1.438351 1.173279
H -1.266185 -1.704446 1.080713
H -0.738131 0.322374 2.251716
C 0.686808 -0.331609 -1.260776
H -1.558870 0.638775 0.837330
H 0.239838 2.142673 0.986119
H 1.247405 0.874421 1.120737
C -0.400029 -1.204029 -0.723865