12
H6 C6
H 1.657271 0.423361 -1.550070
H 2.133201 0.586195 0.682152
H 0.456682 0.149324 2.255830
H -1.662476 -0.434496 1.533502
C -0.277301 -0.075732 -1.343347
C 0.972267 0.252584 -0.925900
H -2.141845 -0.566881 -0.700783
C 1.275291 0.338635 0.412458
C 0.279063 0.076512 1.350118
C -0.980445 -0.258423 0.930547
C -1.267069 -0.333883 -0.419424
H -0.464361 -0.153839 -2.273687