23
H16 C7
H -2.577429 -0.713923 1.143986
H -0.196111 -1.729519 -0.011387
H -1.335893 -0.971939 -0.807811
H 0.161747 0.179070 1.256320
H -0.870008 0.964098 0.338188
H 1.564011 -0.018560 -0.526505
H 0.552321 0.784768 -1.442957
H 2.137305 1.851602 0.580099
H 1.056257 2.695187 -0.226613
H 3.413612 2.795832 -0.919984
H 3.106094 1.417914 -1.607218
H 2.315761 2.700677 -2.047181
C -2.415952 -2.712177 0.672541
C -1.871475 -1.385497 1.091643
C -0.872593 -1.035986 0.040393
C -0.193359 0.263246 0.356687
C 0.915045 0.706082 -0.543441
C 1.683785 1.957736 -0.268547
C 2.728547 2.245031 -1.302423
H -3.004867 -3.032410 1.360411
H -1.689768 -3.328854 0.547715
H -2.896406 -2.596893 -0.151719
H -1.426783 -1.455034 1.956340