190
Zn1 H91 C93 N4 O1
H -0.875596 -3.257169 -2.195008
C 3.262163 1.266011 -2.349772
C 2.087307 1.759696 -1.559501
C 2.024247 3.251318 -1.460020
H 0.426531 -4.313986 -0.368624
H 2.987006 -0.337333 5.197596
H 2.951814 -2.497770 3.979890
N -1.107284 1.445368 -0.407777
N 0.037776 2.367819 2.077941
O 2.079600 1.209698 -0.223269
H -3.669772 -1.219020 -2.656623
H -2.101742 -5.782963 -8.803968
H -4.185015 -5.515739 -7.879865
H -6.079807 -5.194164 -6.564835
H -7.664339 -5.191145 -4.911656
H 3.940640 -3.285854 1.520135
H -7.492269 -3.729717 -3.113558
H 3.549957 -7.215706 2.341172
H -5.705720 -2.233565 -2.973991
H 0.281565 -4.857493 2.182551
H 3.291944 0.287700 -2.314002
H 1.046868 -0.749491 -3.652455
H 2.242187 -1.765546 -5.346764
H 0.180416 -5.876567 -9.392654
H 2.463517 -6.146810 -9.645173
H 3.946779 -4.674814 -8.577226
H 3.140718 -2.994474 -7.215131
H 3.267943 3.412860 8.588865
H 6.868106 -6.755235 1.130406
H 5.395991 -7.372719 1.251002
H 5.434444 3.793315 8.824290
H 5.738993 -6.343076 0.074837
H 5.550542 -5.387411 4.117355
H 5.504487 -6.898660 3.590251
H -2.662538 1.631368 -3.209884
H 6.876347 -6.075852 3.542708
H -2.824059 3.716318 -1.886062
H 7.250983 -4.449863 1.784557
H -1.003651 5.295506 2.873403
H 6.101518 -3.817282 0.868194
H 6.066343 -3.608938 2.454605
H -4.050482 4.291529 0.631727
H -3.813454 8.293848 0.092398
C -1.253433 -0.467170 -1.940955
H -6.093949 4.910522 1.783544
H -7.362123 5.265311 0.874592
H -6.149443 4.419857 0.262274
H -6.006824 6.041317 -1.600804
H 2.121812 -8.871890 1.722369
H -7.206923 6.885261 -0.963568
Zn 0.321300 0.705097 0.892906
H 2.199172 -8.840185 3.321382
H 0.944118 -9.515039 2.593882
H -5.814146 7.600878 -1.293316
H 0.531832 -7.141728 4.484877
H -5.719881 8.396510 1.066172
H -0.535523 -6.438190 3.522127
H -7.106501 7.652209 1.357449
H -0.593789 -8.018887 3.762678
H -5.832072 7.360829 2.280810
H -0.757636 -8.319325 1.334544
H -0.725202 8.450861 -2.049914
H 0.487426 4.314175 4.590121
H -0.586238 -6.756745 1.036210
H 0.446229 -7.809033 0.410648
H -1.277550 10.677727 -0.255286
C 0.573793 -2.351174 0.485796
H -2.455138 9.863977 -0.972480
C 0.207251 -3.392139 -0.441984
H -2.465450 10.055714 0.617837
C -0.506831 -2.817382 -1.437194
C -0.601936 -1.414532 -1.130064
H -0.452681 6.076041 0.199865
H -0.819741 8.783004 2.044268
H -1.201914 3.615165 9.320037
H 0.348211 7.670326 -1.156638
H 0.420330 9.263101 -1.283833
C 2.548365 -0.514425 4.372685
C 2.529097 -1.692173 3.708839
C 1.753126 -1.502398 2.520372
H -0.367110 0.997277 8.337159
C 1.408630 -2.511810 1.596919
H 0.336792 7.943589 1.326302
H 0.316793 9.539383 1.210395
H 0.830862 0.671173 9.348693
H -0.513680 1.346027 9.891169
H 0.649520 3.088266 10.893554
H 3.871400 2.662520 4.668583
H 2.106748 2.682146 10.372431
H 1.513907 4.131496 10.041052
H 0.279520 1.891043 6.355713
H -0.243866 4.549694 8.442452
H 7.112903 2.772731 6.790064
H 5.966104 1.815556 7.366997
H 6.105895 2.037488 5.786969
H 4.851745 5.130944 8.168544
H 6.411428 4.794272 8.048154
H 4.899597 5.363947 5.645357
H 6.452511 4.984499 5.730439
H 5.481477 4.164711 4.757435
H 3.173516 1.557391 -3.280494
H 4.087325 1.632878 -1.970611
C -1.751780 -0.930660 -3.281116
H 1.256589 1.448689 -2.023221
C -3.091145 -1.337384 -3.399785
C -3.618338 -1.920445 -4.588083
H 2.832145 3.583461 -1.017616
C -2.774219 -1.880890 -5.658014
H 1.962900 3.636302 -2.358165
C -1.437046 -1.485489 -5.591801
H 1.235268 3.510993 -0.938038
C -0.836933 -1.071368 -4.380530
C 2.016104 -3.869972 1.822324
C 3.396153 -4.036496 1.726246
C 3.996660 -5.271010 1.924400
C 3.158403 -6.361193 2.203718
C 1.778385 -6.237092 2.285693
C -1.616548 -2.931971 -7.325968
C 1.222284 -4.969213 2.107115
C -1.207160 -4.076806 -8.009769
C 0.871509 -7.446394 2.556839
C -2.268483 -5.030207 -8.250773
C 5.511262 -5.452330 1.876952
C -3.516627 -4.866551 -7.692065
C -3.850587 -3.777274 -6.852457
C -2.896766 -2.814513 -6.787916
C -4.800970 -2.786734 -4.742557
C -4.931709 -3.695899 -5.832398
C -5.999188 -4.576681 -5.846349
C -6.934783 -4.584230 -4.865432
C -6.833060 -3.714620 -3.797890
C -5.775967 -2.820854 -3.716087
C 0.572519 -1.137042 -4.377798
C 1.294556 -1.746976 -5.398403
H -1.023792 3.332844 7.752353
C 0.649625 -2.344682 -6.521199
C -0.705780 -2.116862 -6.601225
C 1.144953 -3.377042 -7.456993
C -1.510454 0.854003 -1.582766
C 0.234883 -4.248313 -8.155847
C -2.281636 1.786418 -2.354424
C 0.771987 -5.278408 -8.950546
C -2.365151 2.923705 -1.635289
C 0.686345 2.647573 8.889510
C -1.628452 2.713247 -0.415901
C 3.009708 -4.573662 -8.458249
C -1.461828 3.665440 0.604131
C 2.526309 -3.572251 -7.653314
C -0.701163 3.485630 1.765302
C 2.127814 -5.443271 -9.103061
C -0.585831 4.444012 2.835297
C 5.911425 -6.575576 1.010044
C 5.902504 -6.013953 3.450964
C 6.297077 -4.232460 1.732532
C 1.599655 -8.788854 2.546978
C -2.149667 4.987670 0.435397
C 0.000680 -7.245900 3.667751
C -0.109995 -7.599179 1.191105
C -3.537185 5.079764 0.501633
N 0.032460 -1.161348 0.049823
C -4.188341 6.305672 0.382032
C -3.388677 7.449753 0.187635
C -2.002417 7.388457 0.130246
N 1.322066 -0.196776 2.457174
C -1.399301 6.140356 0.248627
C -5.717901 6.424942 0.441437
C -6.389650 5.141512 0.878691
C -6.234249 6.770521 -0.986259
C 0.225209 3.909565 3.770264
C -6.131385 7.560115 1.369756
C 0.619486 2.608018 3.292886
C -1.100648 8.630067 -0.008899
C 1.460689 1.726481 3.993299
C 1.777300 0.423274 3.593127
C -1.895888 9.922404 -0.169442
C -0.180912 8.491020 -1.236358
C -0.238627 8.733182 1.258107
C 2.001053 2.203106 5.312572
C 3.304773 2.665388 5.429757
C 0.110230 1.300735 9.138432
C 3.798422 3.135823 6.653780
C 1.292096 3.184890 10.160990
C 2.941899 3.105779 7.752544
C -0.571715 3.634792 8.568854
C 1.635345 2.646970 7.679114
C 1.174265 2.201294 6.436366
C 5.243924 3.646870 6.748572
C 6.191004 2.463234 6.665914
C 5.509274 4.412308 8.068465
C 5.547043 4.628201 5.619987