15
H8 C7
C 0.998816 0.091710 0.656111
H 0.000113 -2.722772 -0.611338
C 0.008476 0.918110 0.212897
H 1.678596 -1.812945 0.709708
H -1.680025 -1.348587 -1.425580
C -0.994632 0.353010 -0.569418
C -0.001705 -1.794056 -0.406245
H -0.798005 2.792858 0.147323
H 0.801966 2.799154 0.198793
C 0.991593 -1.254141 0.369273
H -0.041067 2.482761 1.523596
H -1.695707 0.905518 -0.895377
H 1.709370 0.452178 1.174217
C -0.008460 2.374149 0.548925
C -0.992009 -0.986545 -0.880470