11
H7 C3 O1
H 1.032864 -1.514243 -0.411903
H 0.704607 -1.307409 1.140115
O 0.175202 1.254619 0.824487
H 1.671485 -0.280786 0.382666
H -0.760062 -0.535932 0.641612
H -0.496984 0.126844 -1.928730
H -1.803190 0.122314 -1.005668
C 0.878721 -0.849958 0.289811
H -1.055395 -1.253058 -1.339425
C -0.121412 -0.134341 -0.015502
C -0.931390 -0.297393 -1.161013