15
H8 C7
C 0.390616 -0.624067 -0.588018
H -1.429898 -1.608481 -0.144510
H 2.114612 0.674954 -0.771624
C 0.560353 1.472344 0.581435
H 0.873202 -2.572598 -1.200995
C -0.887405 -0.806742 0.045789
C 1.182722 0.524175 -0.339052
H -2.298552 -0.003552 1.306298
C 0.816623 -1.717216 -1.585071
C -0.750949 1.228778 1.186750
H 0.214222 -1.754911 -2.344879
C -1.403272 0.139978 0.908332
H -1.103736 1.892786 1.804543
H 1.019642 2.288581 0.811235
H 1.698590 -1.505545 -1.964413