109
Ni1 H50 C52 N4 O2
Ni 0.480853 -1.551040 0.111840
H 8.011854 0.180360 -1.318020
H 8.442299 1.629804 -0.899914
H 9.304992 2.619790 -3.555350
H 8.458509 3.464335 -2.544190
H 7.920001 3.206509 -3.993367
H 7.082523 0.973671 -4.632830
H -4.363013 -2.313609 -0.843319
H 7.250019 -0.244391 -3.659530
H 8.514341 0.431575 -4.293723
H -3.237370 -2.974701 -2.905974
C 3.213734 -0.470154 0.309049
H -0.697920 -2.753236 -3.776992
C 4.297953 -0.346695 1.240985
H 1.479523 -1.531868 -4.785578
H -7.480593 -4.034101 4.573447
C 3.930543 -0.994400 2.358387
H -6.697146 -2.718528 4.912434
C 2.598682 -1.457165 2.167288
H -5.983939 -3.878745 4.137609
H -5.785826 1.451310 1.985772
H -7.367129 -0.090688 2.649240
H -4.752035 -3.037505 2.151130
H -3.828108 2.841255 1.475531
H -4.231538 2.181816 0.101217
H -2.333254 5.006332 2.073730
H -1.072534 4.341934 2.727464
H -2.421504 3.546971 2.641541
H -8.921416 -1.695488 2.349085
H -8.613440 -1.546743 3.879959
H -9.296030 -2.850747 3.340598
H 1.290415 5.404640 0.441016
H 1.041873 4.649342 1.793498
C 3.224900 -0.043750 -1.008923
H 0.053109 5.774851 1.330752
C 4.140903 1.022922 -1.484007
C 5.447549 0.817653 -1.862260
C 6.261074 1.825983 -2.367659
H 1.614600 3.923794 -2.349509
C 5.696992 3.084703 -2.477740
C 4.386563 3.337736 -2.109604
H 2.050449 4.409696 -0.914750
C 3.604737 2.315192 -1.611879
H -7.624676 -3.480437 1.048584
C 7.713063 1.537747 -2.771502
H -8.026305 -4.516698 2.153863
H -6.515242 -4.305149 1.790044
C 1.758323 -1.895469 3.169974
H -0.832997 2.120665 -3.573019
C 0.397105 -1.935465 3.038261
H -0.042346 1.010031 -2.800533
C -0.539250 -1.955628 4.111564
H 0.665458 2.355353 -3.181515
C -1.753143 -1.723254 3.597265
H -3.012242 1.621541 -2.622008
H -3.421075 0.932352 -1.273903
H -2.151350 0.441492 -2.052766
C 8.442299 0.986892 -1.613319
C 8.417085 2.829686 -3.263309
C -1.595913 -1.650038 2.172913
C 7.631837 0.588584 -3.946124
C -2.631865 -1.622934 1.268071
C -2.436993 -1.912327 -0.073326
C -3.446650 -2.299892 -1.000316
C -2.831058 -2.639858 -2.139150
C -1.445887 -2.395915 -1.962939
C -0.496205 -2.353771 -2.961689
C 0.724892 -1.757796 -2.817621
C 1.570655 -1.318996 -3.884293
C 2.515115 -0.547833 -3.346148
H 4.451220 -1.118686 3.118906
C 2.328348 -0.566178 -1.922156
C -6.814213 -3.415980 4.262392
C -4.001547 -1.233716 1.717385
C -1.446067 3.631921 0.847399
C -4.299797 0.121027 1.677730
C -0.213804 4.028577 0.306957
C -5.568261 0.547266 2.019908
C 0.228169 3.453096 -0.902648
C -6.516863 -0.388179 2.416183
C -0.597603 2.555498 -1.599319
H 5.103193 0.097724 1.098413
C -6.245448 -1.733501 2.476732
C -4.965817 -2.133462 2.119101
C -3.536521 2.235860 0.776668
C -7.266271 -2.801165 2.926447
C -1.855801 4.181619 2.195638
C -8.654864 -2.163211 3.144526
C 0.618992 5.058227 1.034622
C 1.624506 3.691585 -1.407980
C -7.367129 -3.872134 1.886891
H 3.174291 -0.082424 -3.807713
H 5.803793 -0.036147 -1.776191
C -0.162294 1.956053 -2.906565
C -2.241582 2.721102 0.163142
H 6.214427 3.783312 -2.808649
H 4.035183 4.193189 -2.197285
C -2.681393 1.207036 -1.821285
C -1.834189 2.191237 -1.062240
N 2.181744 -1.167111 0.881746
N -0.271977 -1.758623 1.837773
N -1.196985 -1.979097 -0.670240
N 1.228820 -1.317509 -1.613075
O 2.316821 2.447575 -1.196806
O -3.260604 0.931361 1.321396
H 2.135098 -2.176433 3.973073
H -0.343118 -2.103713 5.008528
H -2.547576 -1.627726 4.072242
H 9.346416 0.791870 -1.867721