12
H6 C6
H -1.543542 1.327185 -1.131054
C 0.919022 -0.773051 0.673440
H -1.868276 0.818788 1.125127
C 1.099840 -0.493433 -0.665798
C 0.182221 0.282182 -1.338066
C -0.916215 0.781434 -0.672170
C -1.104413 0.487866 0.667576
H -0.304880 -0.481653 2.255222
H 0.305226 0.473141 -2.260736
H 1.556189 -1.303148 1.136878
C -0.180644 -0.284804 1.334976
H 1.857552 -0.836601 -1.124932