239
Zn2 H120 Pt1 C106 N8 O2
C 3.688336 -4.238798 -5.029773
C 4.268537 -2.759868 -6.960607
C 1.940504 -3.347269 -6.493522
N -3.007749 0.404798 -3.675509
N -4.363079 2.928189 -3.543864
N -2.678376 0.441293 -0.780728
N -4.022910 2.989014 -0.658953
N 2.861318 -1.223589 0.743815
N 3.245126 -0.926413 3.632548
N 5.410539 0.880975 3.182776
N 5.013815 0.606391 0.284825
C 5.705673 -2.886733 3.145061
O -1.344787 2.664032 -2.405853
Zn -3.298434 1.804828 -2.192521
Zn 4.292828 -0.369251 1.952146
H -1.731567 -2.241982 -4.982477
H -1.858300 -0.683110 2.113574
H -2.849399 -0.787383 -6.647659
H -1.443921 -2.132496 -2.343245
H -5.396448 3.960485 -6.416704
H -5.865436 5.571493 -4.597271
H -5.458580 5.609726 -1.993977
H -2.335540 1.715154 -7.649690
H -5.093525 5.726163 0.641157
H -4.118532 4.198573 2.302380
H -9.048810 2.239991 -9.055491
H -4.928411 1.357152 -10.699935
H -6.288220 1.325870 -6.919781
H -1.725157 2.978587 -11.847751
H -2.452954 3.710231 -10.623843
H -3.314539 2.876052 -11.683002
H -1.603094 0.484740 -11.921903
H -3.188265 0.392633 -11.734430
H -2.218487 -0.391148 -10.733189
O 5.722396 -2.016059 2.042295
H -0.240899 1.782931 -10.356457
H -0.800920 0.896616 -9.148320
H -0.901551 2.493721 -9.083616
H -7.965979 0.076340 -7.658338
H -7.467525 -0.879490 -8.840296
H -8.897945 -0.166962 -8.938746
H -8.363057 0.783654 -11.070822
H -6.954763 0.025942 -11.019188
H -7.007987 1.593503 -11.334778
H -7.955441 2.511099 -7.917956
H -7.787069 3.174967 -9.363744
H -4.973028 1.770766 3.170502
H -2.656006 2.212185 6.468000
H -0.952315 1.769028 2.845489
H -6.321521 0.804508 4.611705
H -7.043127 1.065189 6.016199
H -5.723860 0.163233 5.950554
H -6.336074 3.232316 4.262836
H -5.630530 4.207263 5.316592
H -6.992834 3.463453 5.703249
H -5.923856 2.516313 7.685068
H -4.566594 3.274025 7.301685
H -4.551541 1.699513 7.589111
H 0.804226 1.322394 7.039713
H -0.176476 0.279671 6.320618
H -0.775345 1.416240 7.276301
H 0.418287 -4.975656 -0.973895
H 0.826817 3.692853 6.346565
H 0.846891 -4.728878 1.254229
H -0.756194 3.790173 6.558530
H -0.784838 -6.628372 2.222978
H -0.109978 4.200311 5.153848
H -0.477529 -5.274570 3.006056
H 1.805136 1.930650 4.926455
H -2.567680 -5.078190 3.043808
H 0.914992 2.427681 3.693926
H -2.780437 -6.096583 1.840411
H 0.862604 0.894878 4.152579
H -3.410972 -6.040971 -0.829612
H -2.639234 -5.156394 -1.907395
H -1.262608 -6.687460 -1.523392
H -1.654815 -6.802160 0.017871
C -1.185802 3.990029 -2.102456
H -2.812176 -3.310774 1.651867
H -3.181041 -3.397667 -0.536496
H 1.286617 -1.951757 -1.958292
H 0.703319 -2.733800 2.645156
H 1.005014 -2.521780 5.271051
H 2.613352 -1.364356 6.745764
H 5.468168 1.258093 -2.808638
H 4.801665 0.194515 10.575154
H 4.125320 2.114864 7.086609
H 3.765677 -3.133511 9.480241
H 4.540468 -1.951757 11.446073
H 2.996766 3.539920 8.170300
H 6.779172 1.895892 5.894255
H 4.485241 4.063019 8.445478
H 7.051004 2.505886 -1.354736
H 7.816609 2.900383 3.865994
H 7.392586 2.637964 1.261510
H 1.927908 1.949766 9.790707
H 2.261302 3.001179 10.949396
H 3.288590 4.516604 9.404801
H 2.750298 1.482279 11.080291
H 5.500982 -1.671960 7.107013
H 4.599441 3.764105 11.322938
H 3.900048 -2.394915 -3.205580
H 5.782889 3.216675 10.396044
H 2.275234 -0.681373 -6.461663
H 5.072985 2.241729 11.446885
H 2.636616 1.437094 -3.075388
H 4.945661 -4.188399 9.710332
H 1.767465 2.776994 -7.381445
H 4.772844 -3.479347 8.286962
H 2.172468 1.237239 -7.532875
H 3.189190 2.267797 -6.854478
H 7.324655 -3.402881 9.809341
H -0.316321 2.080107 -6.210456
H 7.656234 -1.847485 9.636068
H -0.236686 1.178151 -4.891638
H 7.142734 -2.700780 8.382983
H 0.101301 0.538614 -6.319663
H 5.744476 -2.992743 11.619543
H 1.201241 3.729348 -5.238984
H 2.603721 3.279239 -4.612047
H 6.046767 -1.421706 11.558035
H 1.235916 2.855198 -3.897466
H -0.250157 4.247234 -2.241899
H 3.065741 -4.367400 -4.285038
H -1.428726 4.142962 -1.165339
H -1.762172 4.530507 -2.681835
H 3.656283 -5.019102 -5.621600
H 4.005520 -1.941330 -7.428916
H 4.241468 -3.515843 -7.582652
H 1.635860 -2.565226 -7.000160
H 1.273343 -3.578406 -5.814098
H 2.061668 -4.103244 -7.103928
Pt -0.864735 -3.256674 0.269516
H 6.405579 -3.564503 3.035632
C -2.633005 0.623770 0.602137
H 4.832198 -3.326415 3.200030
C -2.008454 -0.547556 1.183957
H 5.868461 -2.375798 3.964512
C -1.669514 -1.425182 0.192299
C -2.336931 -0.783907 -3.540890
C -2.080460 -0.764790 -1.045744
C -2.175323 -1.419968 -4.810390
C -1.909089 -1.303531 -2.306368
C -2.779560 -0.622285 -5.714393
C -3.299567 0.521235 -5.013465
C -4.002553 1.621309 -5.580811
H 4.597978 -4.129312 -4.681651
C -4.483503 2.709217 -4.895435
C -5.175988 3.854475 -5.499196
C -5.437831 4.726887 -4.508835
C -4.944090 4.137748 -3.286486
H 5.179247 -2.657334 -6.611234
C -5.050180 4.752955 -2.027889
C -4.606901 4.203787 -0.829384
C -4.718549 4.869392 0.470572
C -4.192270 4.035213 1.369111
C -4.274970 1.530939 -7.055305
C -3.753588 2.853460 0.688861
C -3.122050 1.736008 1.277974
C -3.224525 1.617833 -7.968739
C -3.450495 1.565697 -9.330788
C -4.761418 1.400599 -9.766755
C -5.838259 1.296326 -8.888129
C -5.568601 1.376268 -7.538143
C -2.291515 1.650852 -10.343717
C -2.461607 2.919499 -11.202886
C -2.328378 0.423914 -11.267018
C -0.939876 1.711678 -9.675424
C -7.310018 1.165986 -9.345629
C -7.973162 -0.066166 -8.627666
C -7.418626 0.865334 -10.821949
C -8.094559 2.380759 -8.879263
C -2.975936 1.782931 2.778405
C -4.115259 1.848970 3.572036
C -4.015584 2.027971 4.949679
C -2.734843 2.100961 5.528075
C -1.581610 2.010592 4.751569
C -1.730385 1.843756 3.386387
C -5.327041 2.173952 5.780796
C -6.178650 0.943538 5.571441
C -0.169544 -5.335395 -0.320623
C -6.147840 3.383511 5.212112
C 0.046228 -5.178987 1.008973
C -5.071137 2.438109 7.209101
C -0.852117 -5.641261 2.166983
C -0.199568 2.147884 5.425481
C -2.277364 -5.293686 2.123673
C -0.076277 1.207695 6.622914
C -0.045574 3.586842 5.916340
C 0.949264 1.821164 4.464019
C -2.642584 -5.432716 -0.955833
C -1.468709 -6.159147 -0.712931
C -2.681570 -4.151904 1.229369
C -2.878696 -4.188399 -0.104549
C 2.758481 -1.145385 -0.615165
C 1.571431 -1.847485 -1.057511
C 0.932596 -2.334089 0.047397
C 1.770257 -1.930903 1.186705
C 1.460360 -2.179419 2.493722
C 2.126182 -1.717145 3.646018
C 1.742538 -1.991728 4.993689
C 2.616259 -1.364356 5.795701
C 3.564810 -0.684848 4.940267
C 4.623800 0.131952 5.381565
C 5.473177 0.870548 4.564841
C 5.508990 1.214646 -1.861137
C 4.661109 0.404798 -1.015468
C 3.607767 -0.434595 -1.463944
C 4.785145 0.197991 6.879136
C 4.808397 0.197991 9.625371
C 4.404668 1.374531 8.974849
C 4.398305 1.344987 7.571046
C 6.523776 1.732532 4.993449
C 7.097320 2.279962 3.886177
C 3.902667 2.580614 9.753192
C 6.400249 1.732532 2.749578
C 3.646340 3.781484 8.865953
C 3.299199 -0.469352 -2.928662
C 6.372645 1.902844 -1.075542
C 3.508652 -1.644154 -3.636273
C 6.037057 1.518774 0.293010
C 3.138719 -1.724096 -5.000701
C 6.682862 2.026233 1.419569
C 2.555286 -0.617071 -5.557013
C 2.592565 2.220875 10.456404
C 2.340185 0.580323 -4.914535
C 4.933077 2.987276 10.827797
C 2.745439 0.628983 -3.561533
C 3.300920 -3.017073 -5.796320
C 1.633020 1.736008 -5.595200
C 5.204819 -0.907296 7.585152
C 2.245983 2.031446 -6.964273
C 5.207176 -0.936840 8.990497
C 0.162969 1.348463 -5.769662
C 1.672050 3.015082 -4.759990
C 5.617351 -2.226341 9.706944
C 4.692669 -3.359434 9.255321
C 7.065390 -2.575654 9.352221
C 5.474668 -2.139448 11.216986