158
Ni1 P1 H77 C74 N4 O1
Ni 0.850931 0.164698 -0.554246
C -0.589743 -6.116015 2.977251
C 2.515952 8.726638 -1.062996
H 1.629138 2.777944 -4.826046
H 2.711519 -2.402811 -4.525283
C 2.233057 -5.611209 -0.329717
H -2.343692 -0.228870 8.660648
H -0.498725 -1.166206 4.792631
H -2.164115 -1.733689 9.170649
C 2.809917 -8.088937 -0.256811
H -3.423613 -1.341250 8.264491
H 0.956340 -7.854603 1.645055
H -2.629047 1.897075 -7.815290
H -1.185053 -2.733137 3.075914
C 1.536889 -4.521980 0.158290
H -1.155533 2.803354 3.279524
C 0.356110 -2.476781 -6.095124
C 0.161774 -3.278034 1.575823
C 2.434774 -1.807659 -7.102710
H -3.740948 0.186155 6.785009
H -3.173928 1.247716 2.943427
H -0.237969 8.153508 1.484603
H 1.702937 -4.918371 -7.770582
C -2.417491 5.574988 3.049868
H 0.546757 9.409876 -2.744474
C 0.396700 -5.910479 1.826306
H -4.160370 1.072671 -6.280784
C 2.578681 -3.079556 -7.635262
H -1.380619 -3.184865 6.041881
C 0.990779 8.626410 -0.876250
H -2.843063 -3.122753 6.687975
C -5.280881 2.364331 3.628567
H -1.584796 -3.515191 7.594266
H -0.476585 9.816431 -0.028202
H 0.730024 10.669068 -0.642511
H -1.119864 -0.330509 -4.011963
H 2.389264 -9.331189 1.386799
H -0.031333 4.590503 3.972824
H 2.846816 -10.161239 0.100687
C -0.511024 0.575206 -5.741672
H -0.652472 5.544778 5.098766
H 1.367152 -9.557053 0.177874
C -1.988228 -5.602457 2.577469
H 0.683285 5.976743 4.329876
H 4.326480 -7.823547 1.152629
C -4.950016 1.675446 4.944869
H 4.638895 -7.081019 -0.229470
H 4.811092 -8.667714 -0.115727
H 2.952595 8.743577 -0.183720
H 3.192440 -8.986747 -2.037752
H -0.185080 -4.381944 -6.511864
H 2.834517 7.950230 -1.568927
H 3.032543 -7.400052 -2.156960
H 1.738606 -8.320448 -1.967493
H 2.846816 -5.508441 -1.044985
C 1.571329 0.125172 -3.841635
C 0.311831 8.599307 -2.245513
H 3.092812 -1.143619 -7.271433
H -0.400326 -2.272939 -5.558003
C 0.984629 6.094193 -0.706010
C -0.071922 -5.370099 4.216685
C 1.818555 -1.044521 -3.116841
H -2.316633 4.646969 2.755652
H -2.956221 6.067089 2.394628
H -2.863973 5.595598 3.923251
C 1.336403 -1.502461 -6.325558
C -0.964886 1.246022 -6.854840
C -1.226872 7.676652 3.630108
H -4.551503 2.972752 3.385958
C -0.734881 -7.599095 3.360212
H -6.112346 2.873937 3.728349
H -5.392809 1.690974 2.926789
H 3.344958 -3.292151 -8.154835
C 1.203565 2.943672 -1.695426
C -2.786484 0.267466 -5.006889
H -2.611828 -5.739952 3.321097
C 0.771843 -2.427374 0.622721
H -2.304333 -6.095687 1.790635
H -1.937799 -4.647335 2.363151
C -0.208450 -1.298901 7.529900
C -4.802419 2.748017 6.031162
C 0.354880 2.743783 0.539566
C -1.303131 -0.661682 4.812146
H 0.614406 7.811888 -2.743513
C -0.501185 1.295430 1.899765
C 1.945242 -2.501909 -1.467033
C -6.107426 0.739522 5.291226
H -0.659852 8.557240 -2.126028
C 1.420042 1.365730 -3.217707
C -0.624182 -2.467465 2.356850
H -0.699211 -5.497148 4.959058
C -2.471610 -1.171852 8.429621
C -0.715201 2.610240 2.461401
C -2.321553 1.431230 -7.047791
H 0.005566 -4.415824 4.014332
H 0.807512 -5.723012 4.465346
C 2.305626 -9.407701 0.414365
C 4.280971 -7.896953 0.178142
C 1.438491 3.584561 -2.950861
C -3.228047 0.135900 5.985514
C 2.683229 -8.210339 -1.729599
N 1.209715 1.556020 -1.868148
C -3.229277 0.945058 -6.137383
C -2.887343 0.783001 3.721458
C -1.889830 -2.958154 6.848423
N 1.562719 -1.182016 -1.764433
H -0.344977 1.583689 -7.491360
H -1.675814 7.682017 4.502103
C -0.174010 3.521884 1.607148
H -1.777902 8.153508 2.974543
H -0.356047 8.119628 3.710124
C 0.659915 4.922805 -0.056308
C -0.423696 -1.121315 1.859544
H -1.373239 -7.685205 4.097164
O 2.112519 1.083400 -6.412741
H 0.137174 -7.950596 3.640278
H -1.059595 -8.105877 2.586716
C -0.001813 7.318940 1.097596
C -1.693034 0.047531 3.680072
C -0.324068 6.149247 1.809071
C 2.539322 -3.114565 -2.616108
C 0.846872 3.512567 -0.496730
C -2.076787 -0.647001 5.983109
C 1.551649 -3.106377 -0.299092
N 0.412689 -1.135149 0.741360
C 1.522130 2.639603 -3.890913
N 0.182683 1.417679 0.689700
C 2.433544 -2.251482 -3.630818
C 0.640235 7.333057 -0.135661
H -3.411313 -0.079235 -4.380590
C 2.020271 -6.878589 0.249984
C 0.021556 4.927040 1.224527
P 1.251535 0.155946 -5.632705
C 1.110087 -6.992085 1.281842
H -0.051013 -0.358742 7.751119
C 0.645155 -4.649029 1.270048
H 0.343810 -1.550174 6.761307
H 0.028936 -1.860737 8.296703
H 2.732428 9.548218 -1.549623
H -4.589633 2.320570 6.884998
H 1.442181 6.064266 -1.538402
H -5.643724 3.243789 6.117946
C -0.868948 0.063342 2.444101
C 1.604538 -4.047101 -7.408388
H -4.081652 3.365191 5.787829
C -1.679504 -1.501614 7.186766
C -1.023925 6.231970 3.169346
C -1.429818 0.103715 -4.799876
H 1.520900 4.519921 -3.093773
C -3.658539 0.846243 4.869407
C -0.178930 5.522474 4.238589
C 0.496328 9.866404 -0.130862
H -5.915549 0.282147 6.139050
H -6.213204 0.073223 4.578857
H 0.918210 9.906777 0.751663
H 2.935375 -3.978212 -2.651051
H -6.932741 1.259009 5.380417
C 0.491408 -3.730609 -6.649494