157
Ni1 H77 C74 N5
C -1.825627 1.364162 1.293463
H 2.184825 9.376338 -1.558126
Ni 0.433670 -0.076175 -0.037632
C -2.331959 2.698056 1.522758
H 3.314836 3.989586 -1.062819
H 3.206181 8.281784 -2.119045
C -1.429761 3.550044 1.009451
H 1.938540 -4.566856 -1.887826
H 5.987746 -0.169288 -4.803629
H -0.046222 9.083883 -3.405569
H -0.843025 7.899013 -2.682722
H 7.052564 1.744568 -5.569836
C 0.952678 4.810178 0.048758
H 6.838876 3.772395 -4.398482
H -0.238179 9.103237 -1.818274
C -2.445323 0.214989 1.788542
H 5.321330 3.914322 -2.656538
H 6.962019 -1.212232 -3.359911
C 0.961371 7.576238 0.074791
H -2.704646 -0.618721 4.262593
H 7.740712 -3.306721 -3.973830
C 1.032359 6.921226 -1.149694
H 6.357173 -5.186171 -3.818734
H -6.435130 0.583352 5.107586
C 1.018233 5.523251 -1.145788
H 4.231159 -4.973281 -2.884196
H 0.917184 5.008875 2.056728
C 3.724465 2.027561 -1.646771
C 3.361557 -0.381102 -1.807223
C 1.869363 2.544517 -0.499319
C -7.235555 2.443448 1.464959
H 1.029461 -5.775381 0.279859
C 3.044285 3.077816 -1.072121
H -1.509442 -8.297800 -1.608742
H -7.391293 2.288619 4.836854
C 2.962070 0.871076 -1.354066
H -2.132396 -4.319560 -1.768661
H -6.942187 3.563807 3.981485
H -8.448868 3.026207 3.887012
C 2.607130 -1.506406 -1.528079
H -8.217071 0.002744 2.213086
C 2.989958 -2.780518 -2.032217
H -8.361944 0.200581 3.794776
C 1.988884 -3.642399 -1.680001
C 1.453215 6.884024 -3.674520
H 0.229037 -9.676206 -1.659826
H -9.256536 1.073643 2.793934
C 1.039240 -2.890404 -0.943672
C 2.369538 8.761323 -2.297103
H 0.855613 -10.439598 -0.399975
H 2.061683 6.329221 3.592087
C -0.111415 -3.427359 -0.372929
C 1.217796 7.750635 -2.431329
H -0.651068 -9.901998 -0.342124
H 2.833132 7.621611 3.042619
C -0.952766 -2.694718 0.432146
C 0.786799 -8.435425 1.332487
C -0.096928 8.531231 -2.593284
H 2.087035 -8.179528 -1.715791
H 1.924053 7.729131 4.356265
H 2.521655 -7.340872 -0.422688
H -1.234183 7.425925 2.822344
H 2.742587 -8.925717 -0.460443
H -0.419271 6.236754 3.518940
N 4.510764 -0.494213 -2.610163
H -4.388796 -8.076309 -3.497493
H -0.509817 7.668920 4.227880
N 1.814312 1.157294 -0.645997
H -2.816922 -8.360161 -3.493592
H -0.038979 9.361285 1.893821
N 1.418446 -1.554145 -0.840007
C 4.814636 1.939394 -2.582933
H -3.660809 -8.517141 -2.142154
H 0.645547 9.574175 3.324374
N -0.883589 -1.321687 0.652791
C 5.102209 0.685281 -3.159214
H -3.019745 -4.809851 -3.749606
H 1.554626 9.468805 2.010728
N -0.627526 1.410826 0.624295
C -3.606119 0.328745 2.703161
C 5.887422 0.647649 -4.329357
H -2.451117 -6.112993 -4.484916
C -0.347196 2.770094 0.495500
C -3.514487 -0.201974 3.994796
C 6.510739 1.786716 -4.790768
H -4.026613 -5.835592 -4.454025
C 0.825552 3.320596 0.025725
C -4.553952 -0.141333 4.888849
C 6.350291 3.004273 -4.124023
H -4.374309 -5.089403 -1.603403
C 5.478517 3.073515 -3.069475
C -5.715111 0.518840 4.494227
H -5.323229 -6.121595 -2.371595
C 4.261944 -2.930616 -2.676411
C -5.856362 1.090847 3.225706
H -4.602484 -6.560277 -1.013419
C -4.799512 0.955371 2.328951
C 5.047881 -1.786174 -2.893875
C 6.379266 -1.962936 -3.312140
C -4.475720 -0.807957 6.283545
H -2.299001 -4.173333 1.180471
H -4.892231 1.295135 1.446534
C -7.127624 1.890795 2.887558
C 6.850104 -3.212964 -3.655724
H -3.403659 -2.343342 2.387590
C 6.040987 -4.335473 -3.540258
H -3.146509 2.927288 1.952273
C 0.928774 5.497876 1.241965
C 4.770449 -4.200858 -3.015922
H 0.938915 8.524779 0.081703
H -4.048344 0.981176 7.329606
H -1.498576 4.497080 0.991050
H 1.054814 5.051883 -1.971281
C 0.923342 6.899077 1.290731
H -5.620219 0.682271 7.258957
H -6.949430 1.757471 0.824893
H -4.696652 -0.134881 8.277545
H -8.166365 2.692895 1.282708
H -6.366316 -1.457377 6.175137
H -6.659684 3.232645 1.377181
H -5.287010 -2.547630 5.723306
C 0.827363 7.648922 2.630347
H -5.486211 -2.218619 7.275785
C -0.489534 -4.839742 -0.697546
H -2.425765 -0.580014 6.502397
C 0.258736 -5.923543 -0.257588
H -3.030610 -1.689621 7.484657
C -0.107793 -7.229051 -0.594275
H -2.831410 -2.018632 5.932178
C -1.251567 -7.413985 -1.373264
C -2.032796 -6.334485 -1.821792
C -1.622805 -5.064028 -1.471320
C -7.510814 2.763858 3.987697
C 0.741163 -8.407470 -0.125465
C -8.380053 0.654315 2.926436
C 2.014599 7.303352 3.479599
H 1.109141 -7.570965 1.667484
C 0.250768 -9.721365 -0.680802
C -0.451867 7.204434 3.366548
H -0.111415 -8.607457 1.684294
C 2.154401 -8.192430 -0.737013
C 0.739715 9.144095 2.448856
H 1.395266 -9.145057 1.626443
C -3.303334 -6.545224 -2.640984
C -3.566641 -8.005345 -2.973173
C -3.189971 -5.753877 -3.950783
C -4.510852 -6.031278 -1.833775
C -2.048370 -3.257477 1.162061
C -4.736492 0.284447 7.392044
H 1.565492 7.460331 -4.458719
C -2.653940 -2.264207 1.808980
C -5.486211 -1.842299 6.372113
H 2.264505 6.346424 -3.547291
C -1.963981 -1.050092 1.472421
C -3.063207 -1.319752 6.577493
H 0.685387 6.290514 -3.810214
H 2.456462 9.270968 -3.130419