80
H32 C40 N8
C -3.040171 0.003344 0.414287
C -3.873319 0.314596 1.523166
C -3.325342 0.209219 -0.933193
C -0.978734 -1.124577 3.166068
H 2.387410 2.387979 -7.805575
C -1.972175 -0.623062 2.288401
H -8.119208 0.930269 -2.440336
C 0.383753 -1.265079 2.824385
C 2.989439 1.361532 -6.301262
C -4.710196 0.438511 -1.351606
H -3.370075 -0.222045 -3.772984
C 2.609210 0.909779 -5.061615
H -1.187487 0.039445 -4.901819
C -1.386921 -1.471929 4.541543
C -3.230285 -0.066907 2.659198
C 2.355724 -0.876746 1.813210
C 1.377194 -2.052477 3.470495
C -5.742778 -0.330349 -0.820506
H -6.553560 2.251380 -3.337175
N 7.369526 -0.176187 2.035897
H -4.350469 1.966473 -2.640064
C -2.589115 -2.151999 4.791334
C -0.600369 -1.065058 5.631471
H -0.276056 2.404566 -4.944761
C -2.341221 0.227757 -1.960354
C -1.019739 -1.318743 6.915647
C -2.971208 -2.365680 6.100855
C -0.378569 0.498029 -2.987629
C -7.017663 -0.121547 -1.260405
N -1.886437 -0.549883 0.924983
N -1.004828 0.481442 -1.772410
N 1.861799 0.137992 -1.006952
N 1.006284 -0.591839 1.798293
C -2.544382 -0.002510 -3.355304
N -2.186520 -1.958809 7.104703
C -1.351507 0.147749 -3.972716
H 0.380025 3.044632 -7.079327
C -6.337351 1.588873 -2.690800
C 0.965279 0.846358 -3.180173
H 3.405081 -2.207615 3.099943
H 4.657600 1.610338 -0.679668
C 1.941946 0.845382 -2.164653
C -5.034508 1.413245 -2.280716
H 8.219450 -0.110814 2.251047
C 1.386513 1.294208 -4.537014
C 0.950368 2.507016 -6.543710
H 4.454438 0.189705 3.312583
H 5.481429 -0.891382 -0.459939
C 0.558956 2.116732 -5.294928
H 7.725525 -0.729414 0.159036
H 6.711581 0.323377 3.849758
N 2.143243 2.124538 -7.002101
N -7.287924 0.819038 -2.174807
C 2.571933 -1.815379 2.864114
C 3.820724 1.264937 -0.965459
H 3.488955 2.153809 -2.814708
H -1.196806 -0.815277 0.446962
H -0.613416 0.612187 -0.993529
H 1.183352 -0.368401 -0.770741
C 2.995031 0.330207 -0.258830
H 0.605553 -0.062028 1.221758
C 5.110520 0.014077 2.648268
H -4.732562 0.718540 1.478835
H 3.841226 1.135168 -6.655368
H 3.183281 0.336061 -4.565312
H -2.447461 -2.118825 7.928576
C 3.298841 -0.311810 0.961830
C 5.720004 -0.624037 0.419250
H -3.562053 0.021883 3.546792
C 4.724699 -0.312786 1.369063
H 1.231812 -2.642781 4.200240
H -5.561983 -0.990904 -0.163334
C 7.043350 -0.535248 0.788872
C 6.445048 0.087255 2.969695
H -3.131500 -2.459348 4.075251
H 0.221596 -0.615256 5.480277
C 3.173962 1.566431 -2.137504
H -0.494128 -1.044568 7.657989
H -3.793173 -2.803774 6.288316
H -7.724068 -0.651357 -0.913473