138
Ni1 P1 H57 C68 S2 N4 O5
C -7.298718 4.668847 1.250924
C -7.515615 1.739458 3.744501
C -7.103558 2.588878 2.714309
C -8.747138 -0.230531 5.531202
C -7.962617 3.803047 2.328602
C 4.354444 -0.942476 -5.270878
C 5.303330 -0.605077 -6.204166
C -9.296521 3.295559 1.769777
H 8.487621 -2.446220 1.685285
H 9.315504 -4.097383 0.225484
H 7.961168 -4.950021 -1.475948
H 5.791247 -4.107621 -1.805965
H 7.890307 -1.387369 -4.384099
H 6.249910 -1.929957 -2.820007
C -3.910040 -1.210406 -6.042498
C -4.000972 -0.022856 -6.753560
C -3.592380 1.150070 -6.123596
C -4.492760 0.003469 -8.182894
S 2.614416 -0.750450 -5.442490
O 2.066509 -1.659394 -6.409023
O 2.255224 0.637171 -5.560536
Ni -0.897800 0.172681 0.280982
P 3.224548 -2.362857 -1.502109
H 3.466947 0.496332 2.845915
H 1.149234 4.736122 3.490286
H -1.043565 2.154808 4.930138
H -3.425982 1.954446 4.292599
H -5.918512 0.529970 -0.152747
H -5.133625 0.178969 -2.474320
H -0.405961 -0.699994 -4.668947
C 5.874277 -2.744277 -0.296167
C 6.684831 -2.305235 0.756868
C 7.953987 -2.778207 0.972986
C 8.433906 -3.762471 0.112916
H 2.789969 0.704007 7.099130
C 7.630975 -4.261183 -0.910077
H 3.001088 4.351485 5.417499
C 6.339629 -3.757498 -1.114081
H 0.915319 -0.803831 4.433647
H 2.215994 -1.207481 5.274990
H 0.858210 -0.833081 6.033022
H 3.953438 2.368333 8.248948
H 4.700907 3.415484 7.297850
H 3.350818 3.836684 8.046628
H 1.131627 3.500309 2.472068
C 6.974036 -1.277243 -4.610198
C 6.000028 -1.602649 -3.675141
H 2.496816 4.284210 2.753692
H -5.088046 -0.407493 3.694122
H -5.634696 2.843646 1.339835
H -5.876418 -1.789557 4.984912
H -7.100822 -2.242932 5.911097
H -7.308878 -2.074744 4.331657
H -6.779339 1.231970 6.705206
H -6.802141 -0.227606 7.359947
H -5.558852 0.225769 6.461864
H 7.324893 -0.596156 -6.494327
H -2.944150 -2.428670 -3.119231
H -4.214830 -2.962483 -3.933974
H -2.739664 -3.186245 -4.514069
H -2.318224 2.248408 -3.274110
H -1.920353 2.839259 -4.707595
H -3.398179 3.060096 -4.131987
C 1.938205 -0.696484 0.333710
C 3.147763 -0.582116 1.112382
C 2.862826 0.211437 2.169906
C 1.472603 0.537867 2.071436
C 0.777122 1.198040 3.059030
C -0.605473 1.320159 3.021775
C -1.380543 1.812144 4.110810
C -2.675748 1.703919 3.765929
C -2.703142 1.135299 2.446807
C -3.875446 0.900714 1.730762
C -3.849576 0.549128 0.389118
C -5.015688 0.459770 -0.439067
C -4.588868 0.256336 -1.700492
C -3.160621 0.177946 -1.654510
C -2.367326 -0.072434 -2.769982
C -1.031704 -0.386141 -2.653704
C -0.186777 -0.741967 -3.746015
C 0.999746 -1.154685 -3.206112
C 0.853786 -1.031396 -1.773330
C 1.909101 -1.294939 -0.907578
C 4.356491 -1.243020 0.721710
C 4.568427 -2.046957 -0.342710
H -7.372583 5.003760 3.914800
H -8.783708 5.442510 3.301553
C 2.299368 -1.323312 -3.786379
C 3.459343 -1.662027 -3.168871
C 4.659622 -1.446600 -3.997728
H -7.894825 5.410335 1.013086
H -6.453498 5.027160 1.594844
C 1.531816 1.690757 4.255626
C 1.844527 0.810331 5.298657
H -8.321397 1.941283 4.204624
C 2.581681 1.290470 6.381824
C 3.020376 2.606721 6.433916
C 2.702842 3.449414 5.386192
C 1.964448 3.026459 4.291642
C 1.422503 -0.634474 5.256529
C 3.828157 3.099584 7.609890
C 1.659475 3.969626 3.152040
C -5.173653 1.166743 2.412811
C -5.609073 0.347303 3.446454
H -9.042611 0.693770 5.669608
C -6.795948 0.610992 4.125458
H -9.189812 -0.599081 4.738207
H -8.980303 -0.767269 6.315810
H 5.056024 -0.253931 -7.052188
C -5.930065 2.286433 2.049757
C -7.229763 -0.257002 5.327662
H -8.685638 4.152584 4.243424
H -9.128214 2.735421 0.984717
C -6.843789 -1.722282 5.120319
H -9.758505 2.767596 2.455263
C -6.529128 0.293045 6.576688
H -9.854518 4.058984 1.513756
H -7.122922 4.123334 0.456182
C 6.640991 -0.795934 -5.865839
C -2.979322 -0.063513 -4.144378
C -3.404912 -1.257206 -4.740823
C -3.089187 1.154896 -4.831361
C -3.317708 -2.573457 -4.013745
C -2.642162 2.438533 -4.179335
S 5.812701 -1.137866 1.745682
N 0.913809 -0.005013 0.919221
N -1.423027 0.905686 1.990982
N -2.704253 0.341746 -0.361042
N -0.353428 -0.500216 -1.444463
H -4.201979 -2.016244 -6.453619
H -3.661348 1.971996 -6.594708
H -4.487266 0.924845 -8.515107
H -3.905342 -0.547894 -8.740243
H -5.406505 -0.351918 -8.220151
O 2.919269 -3.811318 -1.581052
O 5.559165 -1.656030 3.057476
O 6.368379 0.178823 1.610890
C -8.224258 4.679085 3.557471