134
Ni1 P1 H57 C68 S2 N4 O1
Ni -0.618894 0.251962 0.154053
C -2.821702 -5.821299 6.707031
P 3.300096 -2.778769 -1.118390
C -1.780497 -1.124286 5.199681
H 0.427218 -3.821521 2.966527
H -4.422934 -1.629084 2.946279
H -5.467881 0.195956 1.626792
H -3.471988 4.214927 -1.138238
H -1.183434 4.901930 -1.766811
H 3.455641 2.351056 -2.066974
H 5.915742 -5.999024 3.453927
H 5.525510 -4.308397 -2.668332
H -2.893610 -6.109541 4.080619
H -2.379982 -4.035090 1.182459
H -1.951025 -5.513641 1.620634
H -3.495651 -5.092478 1.628623
H -5.054057 2.945464 1.893087
H -8.156359 4.325445 -0.311294
H -5.342405 1.967230 -2.017437
H -6.408583 5.917500 3.556343
H -5.277663 4.960176 2.950926
H -5.907029 6.122108 2.049223
H -7.766897 3.884866 4.161815
H -8.156534 2.824491 3.028683
H -6.642346 2.935009 3.534637
H -8.740515 5.723347 2.855949
H -8.329346 5.950357 1.325488
H -9.181789 4.661479 1.742324
H -7.134024 1.350421 -3.416097
H -7.653971 2.327160 -4.571134
H -6.185181 2.515340 -3.965972
H -8.006209 5.248419 -2.505112
H -6.723963 4.919852 -3.404034
H -8.192752 4.731673 -4.009196
H -9.164377 1.886582 -2.138459
H -9.528756 3.405457 -1.788920
H -9.633522 2.885724 -3.298643
H 2.335734 5.381339 -4.897207
H 2.318069 7.240729 -1.335304
H 0.863908 2.327160 -3.724643
H 0.558854 3.341237 -4.925669
H 2.026893 2.724428 -4.751281
H 1.674978 6.216198 0.603224
H 0.479370 5.164784 0.432615
H 1.974277 4.645051 0.671230
C 2.115291 -1.582786 -0.489321
C 1.229498 -2.021871 0.481161
C 1.531890 -3.136011 1.353098
C 0.506746 -3.209192 2.243989
C -0.433386 -2.184661 1.887510
C -1.700361 -2.047260 2.434294
C -2.596464 -1.100390 1.942584
C -3.988098 -1.063053 2.319342
C -4.554566 -0.063911 1.605046
C -3.518770 0.531990 0.807845
C -3.675693 1.690935 0.055370
C -2.587504 2.367484 -0.495034
C -2.679811 3.698180 -1.040970
C -1.439246 4.070058 -1.384794
C -0.565649 2.970853 -1.064029
C 0.796849 2.961892 -1.366796
C 1.555636 1.829830 -1.205766
C 2.898820 1.667040 -1.712636
C 3.216434 0.348292 -1.589992
C 2.079986 -0.281959 -0.939164
C 2.843178 -3.760288 1.338074
C 3.847349 -3.554187 0.426590
C 5.097957 -4.154568 0.824411
C 4.958613 -4.877416 2.032571
C 6.034131 -5.501693 2.653562
C 4.370966 -0.405919 -2.038077
C 4.530305 -1.772458 -1.940508
C -2.106910 -2.988156 3.535281
C -2.445922 -4.315865 3.226560
C -2.683215 -5.204489 4.280178
C -2.092015 -2.552058 4.856512
C -2.579723 -4.780339 1.787475
C -5.021532 2.361511 -0.041311
C -5.518039 3.011177 1.066686
C -6.701340 3.769868 0.991826
C -7.357763 3.814672 -0.238459
C -6.885112 3.139617 -1.372413
C -5.695725 2.419757 -1.260971
C -7.176546 4.494208 2.256844
H 2.515155 8.493764 -3.730371
C -6.095032 5.460494 2.748163
C -7.461988 3.438314 3.344548
C -8.474438 5.278289 2.023764
C -7.666139 3.220265 -2.702457
C -7.109549 2.267421 -3.759046
H 8.039369 -5.791429 2.475632
C -7.645639 4.658492 -3.200609
H 8.324082 -4.565277 0.517862
C -9.131644 2.812543 -2.459598
H 6.512917 -3.579576 -0.554413
C 1.388629 4.192524 -2.008314
H 7.988664 -0.697149 -4.464109
C 1.614871 4.210446 -3.394159
H 8.669828 -2.906014 -4.832998
C 2.167982 5.364911 -3.963084
H 7.410686 -4.690730 -3.972707
C 2.476513 6.485025 -3.206003
C 2.173023 6.459636 -1.857175
C 1.656505 5.315626 -1.238761
C 1.232168 3.050008 -4.277161
C 1.426753 5.336534 0.245848
S 3.344612 -4.775560 2.668850
N 0.055291 -1.420294 0.836016
N -2.312996 -0.119618 1.015988
N -1.284165 1.937361 -0.505961
N 1.083710 0.624437 -0.694033
O 2.717210 -3.783437 -2.046657
H 3.255963 7.561828 -4.800899
H 3.971896 7.909811 -3.412481
H -2.350243 -3.176335 6.780131
H -2.745106 -5.380720 7.578859
H -3.711923 -6.223046 6.619347
H -2.139878 -6.521744 6.632439
H -1.816149 -1.006300 6.171975
H -0.883178 -0.900263 4.876402
H -2.438070 -0.535852 4.774078
C 7.287475 -5.376240 2.068692
C 7.456073 -4.650406 0.891345
C 6.383646 -4.054505 0.258718
C 5.638342 -2.254854 -2.727861
C 6.362912 -1.191492 -3.320849
C 7.497488 -1.421489 -4.097258
C 7.889624 -2.728289 -4.319394
C 7.140815 -3.797625 -3.788698
C 6.026767 -3.576589 -3.011691
C 3.112190 7.724618 -3.844863
S 5.633858 0.349337 -2.965053
C -2.618205 -4.807222 5.611779
C -2.354567 -3.475032 5.877128