128
P1 H57 Pd1 C62 S2 N4 O1
H 4.156541 -4.170438 0.238046
C -0.164205 0.446904 7.229147
H 3.750283 -4.439463 1.762361
C -0.010876 0.578671 5.869167
H 3.178902 -8.979941 -0.074215
C -2.924136 -2.106085 7.399584
C 0.078239 2.613742 -4.808207
C -2.103757 -3.160223 8.106268
C 0.555264 1.616338 -5.609677
C -3.762861 -2.785053 6.332961
C -3.878186 -1.474701 8.417564
C 1.677059 0.108336 8.860134
H 1.505382 -1.028157 -7.625346
H 1.987650 -4.702997 -8.153303
S 1.655174 -3.797281 -5.545313
H 1.120093 -3.610428 -8.937236
P 1.550988 0.362902 -4.829380
N 0.641757 -1.271560 -1.254845
H 1.384816 -4.163118 -2.442644
N 0.087412 -1.353548 1.530785
H 0.671899 -4.250963 2.780779
H 0.100518 -2.558120 4.504055
C -1.396083 4.833654 -0.023744
C -0.501006 5.832888 0.385719
C -0.940026 7.157881 0.424873
C -2.230877 7.505600 0.052044
C -3.095812 6.511855 -0.366412
C -2.701349 5.164902 -0.411588
C 0.918275 5.488830 0.760921
C -2.702660 8.955039 0.072734
O 2.983636 0.767538 -4.781487
C -3.685541 4.129065 -0.868518
H -0.124890 -7.682400 -0.666595
H 2.118700 -9.140990 -1.262349
H 1.692785 -9.483219 0.241376
H -1.375115 -4.318676 -0.442945
H -1.908492 -5.758965 0.003644
H -1.487819 -5.499091 -1.519065
C 0.747909 1.155153 8.222523
C 1.616776 2.222101 7.543745
H 3.011157 -3.290160 0.929945
C -0.050191 1.826799 9.352414
H 0.730872 1.310711 -7.685194
S -0.524464 3.918238 -5.759333
H -0.765728 4.634173 -8.437324
H -0.917747 3.195714 -9.119448
N -0.616331 1.422347 1.474475
H 0.522501 3.885662 -9.019233
N -0.051501 1.519526 -1.314932
H -1.600522 2.492956 4.327169
H -1.780062 4.200439 2.566225
H -0.729034 4.368808 -2.626886
H -2.243982 -1.342934 4.764712
H -1.279448 -0.504748 8.609602
H -2.701349 -3.839190 8.487280
H -1.583486 -2.744790 8.824135
H -1.494371 -3.584806 7.466890
H -4.367005 -3.431078 6.756025
H -3.175753 -3.253558 5.703982
H -4.289685 -2.113406 5.854494
H -4.487572 -2.160988 8.763451
H -4.397147 -0.766452 7.982755
H -3.360535 -1.095870 9.158830
H 2.273340 0.547560 9.501597
H 2.211746 -0.323568 8.160221
H 1.139751 -0.566971 9.322846
H -0.341124 7.835018 0.713517
H -3.977784 6.746108 -0.628980
Pd 0.026212 0.080701 0.111894
H 1.051947 4.520707 0.678291
C 0.892065 -1.031817 -2.563423
H 1.087330 5.763345 1.686913
C 1.231486 -2.261644 -3.245394
H 1.536835 5.957335 0.162357
C 1.203966 -3.240747 -2.303169
H -1.976638 9.531520 0.391896
C 2.714982 -6.512966 0.280083
C 0.850128 -2.618513 -1.062134
H -3.473239 9.039224 0.672047
C 0.747909 -3.291990 0.145432
H -2.962140 9.227724 -0.831846
C 0.442560 -2.671586 1.360933
H -4.534750 4.564629 -1.095166
C 0.466149 -3.335913 2.628175
H -3.831007 3.477550 -0.153068
C 0.141143 -2.415372 3.565015
C 3.414793 -4.183249 0.878776
H -3.333014 3.671540 -1.661411
C -0.131442 -1.181885 2.879392
C -0.567842 -0.008791 3.480865
C 1.691475 -2.988194 -7.069287
C 1.893293 -3.747685 -8.350814
H 0.699420 1.125871 5.554765
C 0.809503 0.210821 -3.201973
C 1.420199 -2.327528 -4.683176
C 1.362537 -1.262409 -5.543763
C 1.519798 -1.646730 -6.904432
H 2.188157 2.654005 8.213945
H 1.040152 2.895578 7.125282
H 2.177673 1.801178 6.860323
H 0.567058 2.271514 9.968612
C 1.074225 -4.759730 0.131512
H -0.563910 1.147832 9.837305
C 2.380802 -5.175163 0.428211
H -0.663509 2.487466 8.970574
C 1.792384 -7.455468 -0.121522
C 0.517259 -7.040035 -0.387806
C 0.124107 -5.707722 -0.268053
H 2.703187 -3.425588 -8.797873
C 2.235336 -8.892096 -0.321266
C -1.284690 -5.283139 -0.586056
C -0.812907 1.184434 2.809901
C -1.358078 2.384980 3.414665
C -1.458987 3.312841 2.455898
C -0.997688 2.727209 1.232887
C -0.950510 3.391535 -0.003745
C -0.510179 2.802243 -1.175937
C 0.442560 1.903664 -7.001047
C -0.472175 3.472059 -2.452117
C -0.003013 2.575310 -3.358980
C -0.118337 3.107869 -7.240352
C 0.290541 1.369274 -2.613104
C -0.338503 3.763045 -8.569036
C -0.747381 0.024151 5.010822
H 3.606127 -6.789311 0.461008
C -1.728952 -0.874428 5.412992
C -1.959602 -1.090380 6.834509
C -1.156260 -0.400432 7.674310