110
Zn1 H38 C57 N6 O2 F6
Zn 0.325683 0.447541 -1.858707
C -0.222222 2.441583 0.879897
C -1.021671 1.297706 0.777505
C -2.110668 0.968893 1.644093
C -2.678053 -0.156917 1.175052
C -1.931830 -0.525993 -0.016315
C -2.255442 -1.604314 -0.849999
C -1.557121 -1.973906 -1.993213
C -1.908410 -3.069777 -2.856427
C -0.058287 -2.032752 -3.614969
C 3.013898 1.013285 -3.274635
C 3.314091 2.108124 -2.463639
C 2.538061 2.555661 -1.385524
C 2.825479 3.706249 -0.555836
C 1.796095 3.829618 0.301956
C 0.908291 2.738909 0.089350
C -3.517954 -2.352273 -0.531114
C -3.558406 -3.266446 0.481411
H -2.384141 1.456693 2.411296
H -3.419146 -0.618753 1.547120
H -2.642999 -3.661899 -2.747844
C 4.612797 2.829242 -2.754251
C 5.834858 2.180391 -2.604040
C -0.989736 -3.096619 -3.851014
C 7.018596 2.830274 -2.939313
C 7.020725 4.119201 -3.391550
C 1.063710 -1.739556 -4.407994
H 3.591684 4.265282 -0.607010
C 5.798664 4.774246 -3.543629
C 1.985578 -0.715951 -4.170535
H 1.681883 4.524668 0.939998
C 4.627700 4.125395 -3.228915
H -2.771880 -3.443860 0.983104
C 3.134188 -0.417593 -4.974957
C 3.767573 0.626659 -4.455896
H 5.860459 1.291150 -2.269809
C -0.638446 3.523001 1.848896
C -1.337831 4.591514 1.333971
C -1.697637 5.671384 2.134044
H 5.774830 5.668184 -3.863349
H 3.803032 4.583720 -3.341349
C -1.371896 5.660544 3.451084
C -0.716156 4.575513 4.021002
C -0.362737 3.479641 3.220004
C 0.057745 1.879452 5.029143
C 0.924259 0.693764 5.448443
C 0.096068 -0.571934 5.548241
H -0.967434 -3.709956 -4.576298
H -1.579476 4.591514 0.416015
C 0.072648 -1.468556 4.487251
H 3.399326 -0.891404 -5.755346
H -2.167364 6.408555 1.762452
C -0.662930 -2.647534 4.560311
H 4.555622 1.039147 -4.790523
H -1.595146 6.407884 3.993672
C -1.350606 -2.977896 5.726231
H -0.508129 4.576493 4.948532
C -1.314412 -2.059077 6.800276
H 1.341612 0.884548 6.326484
C -0.587350 -0.892488 6.730340
C 1.308548 -2.567008 -5.626218
H 1.648628 0.563374 4.786903
C -0.563930 -3.674752 3.449509
C 0.780550 -2.238712 -6.829377
H 0.567509 -1.274107 3.699425
C -1.997830 -2.466868 8.045868
C 1.088194 -2.926277 -7.984039
H -1.828306 -3.795799 5.797393
C 1.913191 -3.994790 -7.919030
H -0.549198 -0.307542 7.477815
C 2.419900 -4.381932 -6.731404
C 2.119707 -3.651007 -5.609589
C 0.195067 4.217793 -3.374104
H 0.177013 -1.507219 -6.880864
H 0.724226 -2.652386 -8.817576
H 0.893420 1.951925 3.309347
H 2.134738 -4.474692 -8.709178
H 2.975192 -5.152346 -6.671473
H 2.501186 -3.917361 -4.781101
N -0.912026 0.355143 -0.204146
N -0.417028 -1.353446 -2.475177
H 0.391470 5.115241 -3.708021
N 1.933417 0.184800 -3.130138
H 1.019256 3.694015 -3.324625
N 1.372419 1.966172 -0.957681
H -0.207170 4.280975 -2.480578
N 0.287680 2.363122 3.798178
C -4.747467 -3.948333 0.789458
C -5.870528 -3.679914 0.084945
C -5.843915 -2.781743 -0.921802
O -0.792801 2.354347 5.813859
C -4.678273 -2.114310 -1.205852
O -0.883284 1.615163 -3.130947
C -1.018477 4.238441 -5.572297
C -1.220735 2.266595 -4.061564
F -0.534124 -3.045000 2.263015
F 0.570840 -4.424260 3.562180
F -1.618863 -4.443875 3.442707
H -4.761433 -4.594809 1.486490
H -0.624427 5.118957 -5.385620
F -1.437896 -3.494086 8.648599
H -6.681708 -4.127399 0.298371
H -1.956345 4.344569 -5.818543
F -2.026571 -1.452554 8.935281
H -6.628429 -2.606807 -1.428460
H -0.528269 3.818726 -6.313664
F -3.245439 -2.833362 7.863946
H -4.680147 -1.464323 -1.898231
H -1.827997 1.821794 -4.638710
N -0.916284 3.438862 -4.442629