66
Fe1 H28 C28 N4 Cl1 O4
N -1.277556 1.317427 0.693790
C 1.290986 0.528058 4.124443
O -1.720338 -2.414557 -1.477733
C 2.300449 -0.264000 3.692849
O -1.656297 -3.734845 0.452729
C 4.149042 -1.139584 -0.817651
N -0.426860 0.417266 -1.790206
C 3.723059 -0.905327 -2.081757
O -0.465143 -1.720330 0.400994
O -2.819083 -1.696424 0.457572
Fe 0.232829 0.211907 0.051737
C 2.367234 -0.459950 -2.003919
C 3.137238 -0.927408 1.445807
H -4.131084 2.785182 0.522767
C 1.539216 -0.283201 -3.106619
H -3.006184 3.127927 2.710515
H -0.535601 -0.052785 -4.969990
H -2.743279 0.555900 -4.025748
C 2.135752 -0.436813 -4.491620
C 4.356183 -1.578336 2.063563
C 5.511792 -0.602905 2.273728
C 2.694325 0.873683 -5.019374
H -4.748721 1.506369 -1.162190
H -4.326591 0.757514 -2.511547
H -3.932388 3.552278 -2.056832
N 1.050618 0.333164 1.843599
H -5.085585 2.944554 -2.984562
N 1.982060 -0.363655 -0.672961
H -3.551416 2.795743 -3.415920
H -1.535609 3.090485 4.259435
H -0.255883 2.414595 4.943496
H -2.795034 1.121381 4.637042
H -2.206051 1.654220 6.026550
H -1.514033 0.415730 5.286645
H 1.134345 0.793997 5.022641
H 2.962527 -0.679710 4.231706
H 5.005171 -1.460247 -0.561971
H 4.233027 -1.015735 -2.875500
C -2.420993 1.624458 -0.017939
C -1.447950 1.885597 1.949913
C 0.503659 0.893844 2.989052
H 4.659701 -2.314710 1.475922
C 0.210277 0.065304 -2.972127
C -1.736951 0.687429 -2.145412
C -3.286256 2.435717 0.782981
C -2.676870 2.614290 1.983024
H 4.103485 -1.971004 2.936414
H 5.806182 -0.253439 1.407450
H 1.438901 -0.767077 -5.111929
H 6.256678 -1.068539 2.707915
C -0.725817 0.122908 -4.055882
H 2.859983 -1.110782 -4.460862
H 5.214747 0.138269 2.841500
H 1.969353 1.526530 -5.104518
H 3.103892 0.723912 -5.896862
C -1.927269 0.471414 -3.545475
C -2.709724 1.232749 -1.321985
C -0.636029 1.679182 3.053785
H 3.370129 1.214508 -4.396526
C -4.086500 1.496768 -1.898611
C 2.178481 -0.355207 2.267647
C -4.172135 2.814944 -2.656882
C 3.065493 -0.813160 0.061004
C -1.061096 2.233142 4.396220
C -1.975979 1.269232 5.154620
Cl -1.708929 -2.407548 -0.055808