13
H8 C4 O1
H -1.304243 1.076923 -1.338526
H 0.669525 1.845864 -0.347448
H -0.076121 -0.850153 -1.629685
H 1.101214 0.164396 1.637553
O 0.424824 -1.090093 0.310742
H 1.865328 0.219185 0.233921
H -1.253456 -1.483065 -0.740086
C -0.523970 -0.814256 -0.748621
C 0.974247 0.136056 0.656908
C -1.096478 0.604600 -0.494450
H -1.899836 0.581929 0.082177
C 0.166272 1.246959 0.260476
H -0.126908 1.766514 1.050494