93
Co1 H36 C48 N4 O4
C 1.204079 -0.810848 -5.625644
C 1.611297 -0.673804 -6.940603
H 1.788486 2.577632 -7.039822
H 1.080028 2.329467 -4.825746
H 3.121350 2.409238 -8.912945
H 1.574587 2.356428 -9.320069
H -7.625399 -0.323578 -0.470957
H 2.683757 1.768278 -10.312461
C 7.416815 -1.459908 1.412860
H 7.625399 0.323578 0.470957
N 1.577421 -0.357839 -1.112663
C 9.256738 -2.640016 2.350444
C -2.397102 0.694170 -1.704963
C -3.261998 0.848916 -0.627325
H 1.618795 -0.789492 4.774295
H 3.671640 -1.009678 3.400502
C 0.685312 0.146086 -3.357994
H 4.532184 -2.903770 1.779212
C -0.601543 0.431310 -2.932587
H 6.811175 -3.222342 2.225654
C -1.677064 0.711872 -3.829299
C -2.792414 0.846061 -3.080225
C -4.705475 1.100165 -0.887508
C -5.157342 2.237447 -1.520188
C -6.514641 2.432545 -1.789628
O 8.771138 -1.528430 1.650188
C -6.994147 0.330240 -0.747613
C -5.654565 0.151320 -0.484554
H -1.788486 -2.577632 7.039822
H -1.080028 -2.329467 4.825746
C 1.025770 0.300261 -4.809456
H -3.121350 -2.409238 8.912945
H -1.574587 -2.356428 9.320069
H -2.683757 -1.768278 10.312461
C 1.860334 0.589102 -7.460730
C 1.648858 1.710205 -6.679303
C 1.229309 1.557933 -5.359244
C 2.397102 -0.694170 1.704963
C 2.432254 1.885318 -9.372601
C 3.261998 -0.848916 0.627325
H -8.875657 2.649143 -3.252733
N -1.046323 0.420842 -1.617995
H -10.233665 2.587311 -2.408308
H -9.001125 3.459943 -1.878750
C -0.685312 -0.146086 3.357994
O 2.312342 0.610135 -8.751009
C 0.601543 -0.431310 2.932587
Co 0.000000 0.000000 0.000000
C 1.677064 -0.711872 3.829299
H -4.606640 1.235925 1.788758
C 2.792414 -0.846061 3.080225
H -3.320948 0.655160 3.812361
C 4.705475 -1.100165 0.887508
C 5.157342 -2.237447 1.520188
C 6.514641 -2.432545 1.789628
C 6.994147 -0.330240 0.747613
C 5.654565 -0.151320 0.484554
H 5.369228 0.628674 0.022695
C -1.025770 -0.300261 4.809456
H -1.043700 1.678951 5.274582
C -1.860334 -0.589102 7.460730
H -1.720479 1.443063 7.487094
C -1.648858 -1.710205 6.679303
C -1.229309 -1.557933 5.359244
C -2.432254 -1.885318 9.372601
N 1.046323 -0.420842 1.617995
C -7.416815 1.459908 -1.412860
O -2.312342 -0.610135 8.751009
C -2.839897 0.732809 0.693207
C -9.256738 2.640016 -2.350444
C -3.704793 0.939328 1.817811
C -3.002756 0.633832 2.917526
C -1.684718 0.270473 2.494452
O -8.771138 1.528430 -1.650188
C -1.204079 0.810848 5.625644
C -1.611297 0.673804 6.940603
H 4.606640 -1.235925 -1.788758
H 3.320948 -0.655160 -3.812361
N -1.577421 0.357839 1.112663
H -5.369228 -0.628674 -0.022695
H 1.043700 -1.678951 -5.274582
H 1.720479 -1.443063 -7.487094
H 8.875657 -2.649143 3.252733
H 10.233665 -2.587311 2.408308
C 2.839897 -0.732809 -0.693207
H 9.001125 -3.459943 1.878750
C 3.704793 -0.939328 -1.817811
C 3.002756 -0.633832 -2.917526
C 1.684718 -0.270473 -2.494452
H -1.618795 0.789492 -4.774295
H -3.671640 1.009678 -3.400502
H -4.532184 2.903770 -1.779212
H -6.811175 3.222342 -2.225654