236
Dy1 Co1 Si2 P3 H125 C89 N6 O9
C -0.579061 -1.446902 2.930120
C -1.932710 -1.029715 2.921332
C 2.574434 -2.139971 0.042141
C -2.592859 -0.922054 4.189570
C -3.149700 -0.789720 5.239596
C 1.897985 -1.372885 -4.398249
C 2.469504 -1.408772 -5.453244
C -4.717818 -0.511596 -2.395603
C 2.536629 -2.308192 1.444852
C -5.615532 -1.559049 -2.249828
C -6.884317 -1.538863 -2.836188
C -7.197431 -0.446550 -3.624099
C -6.331073 0.621090 -3.815377
C -5.084497 0.578474 -3.184862
C 1.425144 -2.032310 2.261796
C -7.842516 -2.723136 -2.606039
C -8.175346 -2.801639 -1.122577
C -9.185600 -2.541458 -3.291755
C -7.183916 -4.026285 -3.023571
C -6.717087 1.807606 -4.711941
H -4.707052 -0.554212 2.577251
C -8.173121 2.218064 -4.387769
H -5.457792 -0.412906 0.236896
C -6.814776 1.356774 -6.143006
H -3.009034 -0.700003 -4.552410
C -5.850051 2.982907 -4.548498
H -0.666592 -1.007286 -5.268177
C 1.358199 -2.294734 3.690317
C 0.124181 -1.913434 4.095536
H 2.045461 -2.662576 4.232021
H -0.212706 -1.944835 4.983793
H -5.359621 -2.314920 -1.734505
H -8.043482 -0.426364 -4.054664
H -4.478736 1.302944 -3.293046
H -7.348832 -2.918272 -0.608140
H -8.771615 -3.561996 -0.960989
H -8.618572 -1.971750 -0.841960
H 5.067777 -3.449849 -8.227155
H -9.587411 -1.693626 -3.005397
H 6.477089 -3.225555 -7.501875
H -9.779210 -3.281628 -3.050409
H 6.002253 -2.222960 -8.656687
H -9.056954 -2.528000 -4.264342
H -6.322235 -4.120488 -2.568405
H 6.057916 -0.101137 -6.836094
H -7.041269 -4.024042 -3.994132
C -3.216177 0.405767 7.994980
H -7.763526 -4.777670 -2.780199
C -1.671937 0.419225 8.057198
H -8.762098 1.442006 -4.495555
H 3.626959 0.280163 -8.698272
H -8.455633 2.929076 -5.000501
C -1.133584 1.628170 8.679531
H -8.222918 2.541047 -3.464383
C -5.800395 -0.145996 6.474263
H -7.402479 0.573988 -6.199233
C -5.829524 1.177339 5.795219
C -6.656510 -0.132539 7.750855
H 4.239827 1.426306 -6.819521
C -4.057365 -2.566130 7.405393
C 0.331397 1.706673 8.807968
H -5.819201 3.236359 -3.600911
C -5.061550 -3.384803 6.671044
H -6.205338 3.727563 -5.076008
C -2.652785 -3.158266 7.282623
H -4.946124 2.765342 -4.857065
C 2.237274 -4.129460 -7.347822
C 1.349258 -6.531650 -7.650622
C -2.343018 3.117483 2.617667
C -2.729769 3.092811 4.047251
C -3.243808 3.994473 -0.487025
C -0.752767 2.608336 -3.240625
C -1.788773 3.312619 -4.086734
C 2.953731 2.653194 -3.324557
H -3.550843 0.228575 8.912333
H -3.514224 1.318644 7.751325
H -1.312937 0.345208 7.136127
C 1.417903 2.110403 4.155304
H -1.362688 -0.370290 8.566011
C 2.681336 1.545181 4.708437
H -1.440056 2.408714 8.152870
H -1.527872 1.708916 9.584261
H -6.230664 -0.796449 5.847090
H -5.275821 1.141452 4.987081
H -5.476889 1.861436 6.400565
H -6.751036 1.399390 5.552094
H -6.620855 -1.014015 8.175959
H -7.584962 0.080541 7.520323
H -6.310815 0.542587 8.368794
H -4.305637 -2.575102 8.375176
H -5.947690 -2.978831 6.772079
H -5.074251 -4.293195 7.039318
H -4.823684 -3.420690 5.721238
H -2.018193 -2.597531 7.774371
H -2.395368 -3.191910 6.336269
H -2.647554 -4.064415 7.654328
N -2.272384 -0.768861 0.491067
N -0.945551 -0.825607 -2.088519
H 1.885900 -4.001612 -6.431428
N 1.544941 -1.655496 -0.722651
N 0.229027 -1.512396 1.834471
N 1.416693 1.708916 9.008703
N 1.518336 -7.621719 -7.235842
O -1.269450 1.915267 0.416020
C 2.263546 5.452385 1.265618
O 0.956053 1.444249 -1.410951
C 2.359553 5.555560 -0.165378
O 1.357209 1.087621 1.450869
C 1.059589 5.945832 -0.591383
O -1.160740 3.651303 2.331818
C 0.232152 6.044522 0.547259
O -2.081153 4.241197 0.205882
C 0.997379 5.743968 1.659699
O 0.124026 3.532427 -2.563988
O 2.485312 3.308133 -2.134643
O 2.096078 2.888703 3.037104
C -3.787873 5.288650 -1.094617
H -3.036316 3.619902 2.119984
H -5.923109 1.121266 -6.469670
H -2.350393 2.186663 2.279001
H -7.182323 2.083487 -6.688612
C 3.338573 -2.146700 -2.056476
C 3.695642 -2.447254 -0.801608
H -3.612773 2.677867 4.139648
H -2.758834 4.007931 4.393628
H -2.071406 2.572449 4.554562
H -3.066931 3.339534 -1.209485
C 2.309718 -2.783695 -8.057251
H -3.918226 3.604202 0.122151
C 1.311900 -5.116354 -8.132450
H -0.213323 2.011713 -3.816643
H -1.211046 2.043114 -2.567261
C 3.071301 0.246518 -7.867008
H -2.359141 2.646466 -4.524140
H -1.339630 3.857654 -4.766067
C 3.307823 1.412848 -7.115760
H -2.338973 3.889055 -3.516707
C 1.621444 0.367637 -8.248160
Si 3.219039 -1.460136 -7.104692
H 2.964759 1.670786 -3.201590
H 2.368880 2.870760 -4.094438
H 0.803809 1.412848 3.817762
H 0.947644 2.698053 4.798400
H 2.474106 0.979960 5.481867
H 3.271246 2.276380 4.989187
H 3.881524 -2.234175 -2.831309
C 3.773912 -2.846498 2.084412
H 4.532721 -2.799396 -0.520869
C 4.166309 -4.160861 1.866495
C 5.353722 -4.661037 2.404376
H 3.128334 1.009119 4.021403
C 6.130452 -3.793019 3.162803
C 5.770563 -2.476412 3.414908
C 4.577603 -2.021095 2.866500
H 2.976818 5.212390 1.844717
C 5.780849 -6.118949 2.188609
H 3.124178 5.400797 -0.707191
C 5.238155 -6.939865 3.349715
H 0.792780 6.111810 -1.489251
C 5.216484 -6.699871 0.889525
H -0.688899 6.275545 0.551281
C 7.312733 -6.251282 2.109064
H 0.686402 5.743968 2.557394
C 6.719896 -1.559049 4.215357
C 7.161366 -2.265576 5.496305
C 6.048223 -0.258143 4.626975
C 7.931246 -1.247280 3.356068
H -4.614107 5.095757 -1.584136
H 2.756767 -2.909300 -8.930992
H -3.123866 5.665465 -1.707829
H 1.386455 -2.469683 -8.235536
H -3.975161 5.930132 -0.378741
H 1.573475 -5.100653 -9.087372
H 0.379727 -4.786642 -8.074495
H 3.617212 -4.728325 1.343342
H 6.946354 -4.116002 3.525589
H 4.304664 -1.123919 3.028737
C 5.053657 -1.929135 -6.900110
H 5.588528 -6.583238 4.193813
H 5.517347 -7.872929 3.248483
C 5.758264 -0.762805 -6.178430
H 4.259287 -6.888278 3.357016
H 5.553989 -6.183994 0.126415
H 4.237500 -6.650526 0.908911
H 2.713980 1.424063 -6.335674
H 5.495560 -7.635177 0.800377
H 3.129652 2.200120 -7.671916
H 7.647807 -5.719705 1.355568
H 1.357906 -0.410663 -8.782852
H 7.552707 -7.191075 1.974803
H 1.488504 1.184068 -8.774896
H 7.713205 -5.928299 2.941516
H 1.072831 0.408010 -7.438654
H 6.375278 -2.465198 6.047205
H 7.771083 -1.684654 5.996128
H 7.620558 -3.099950 5.268089
H 5.265373 -0.457765 5.180463
H 5.765745 0.233061 3.828262
H 6.680389 0.286891 5.139613
H 8.366028 -2.083897 3.088674
H 8.563528 -0.700003 3.869358
Dy -0.072337 -0.024653 -0.010942
H 7.648768 -0.756076 2.557355
C 4.393883 3.193743 -3.559246
Co 0.981681 4.103256 0.349959
C 4.160747 1.085379 0.862635
C 4.892273 1.011361 -0.394923
Si -4.069823 -0.802057 6.832405
P -0.961368 3.339310 0.782599
P 1.138576 2.946347 -1.450820
P 1.963968 2.461423 1.473588
H 3.147127 -4.515246 -7.277123
H 4.981221 -2.581830 -6.145184
H 5.132195 -0.338889 -5.551705
H 6.532752 -1.103732 -5.683829
O 3.479241 2.384042 1.006008
C -2.726504 -0.780749 1.783379
C -4.157166 -0.601313 1.806569
C -4.560940 -0.516082 0.531987
C -3.386663 -0.610285 -0.318089
C 5.703278 -2.776966 -7.904127
C -3.375907 -0.590099 -1.723302
C -2.245937 -0.695517 -2.536449
C -2.249513 -0.765048 -3.985684
C -0.975613 -0.937755 -4.370681
C -0.165652 -0.998314 -3.188099
C 1.220606 -1.316812 -3.137545
C 1.981676 -1.666710 -2.016536
H 4.771100 2.781042 -4.364271
H 4.955828 2.971692 -2.788416
H 4.364462 4.164937 -3.675514
H 3.491705 0.358666 0.898021
H 4.790820 0.959774 1.616455
H 5.335042 0.141100 -0.465633
H 5.565483 1.724617 -0.423965
H 4.267872 1.121266 -1.143030