193
Zn1 H80 C96 N8 O8
Zn 0.000000 0.000000 0.000000
H 0.741381 -7.999825 -1.000871
H -0.741381 7.999826 1.000871
H 0.445847 -9.504436 -0.542725
H -0.445847 9.504436 0.542725
H 1.771338 -9.166653 -1.373433
H -1.771338 9.166653 1.373433
H 4.415599 -5.535649 1.416436
H -4.415599 5.535649 -1.416436
H 5.493488 -6.700774 1.212070
H -5.493488 6.700774 -1.212070
H 5.077951 -6.245149 2.688831
H -5.077951 6.245149 -2.688831
H 7.683502 1.872966 -4.611731
H -7.683502 -1.872966 4.611731
H 6.240164 1.996808 -3.931635
H -6.240164 -1.996808 3.931635
H 6.692694 3.052175 -5.046303
H -6.692694 -3.052175 5.046303
H 2.403945 1.257650 -7.442715
H -2.403945 -1.257650 7.442715
H 2.902362 0.717542 -8.864286
H -2.902362 -0.717542 8.864286
H 3.219807 2.223067 -8.424216
H -3.219807 -2.223067 8.424216
H 1.565240 4.603187 -3.192103
H -1.565240 -4.603187 3.192103
H 1.352003 -5.605601 0.520990
H -1.352003 5.605601 -0.520990
H 6.122151 -5.051238 -6.488786
H -6.122151 5.051238 6.488786
H 3.645824 -3.453337 -3.030987
H -3.645824 3.453337 3.030987
H 3.589201 0.558533 -4.616837
H -3.589201 -0.558533 4.616837
H 8.158291 -3.587795 -3.339019
H -8.158291 3.587795 3.339019
H 3.850936 -8.003761 3.715399
H -3.850936 8.003761 -3.715399
H 4.742356 -0.811705 -8.618070
H -4.742356 0.811705 8.618070
H 3.263521 -5.855114 -5.024491
H -3.263521 5.855114 5.024491
H 4.105312 -7.196375 -4.793183
H -4.105312 7.196375 4.793183
H 4.194967 -6.426858 -6.193497
H -4.194967 6.426858 6.193497
H 7.896666 -3.837712 -5.630344
H -7.896666 3.837712 5.630344
H 0.384622 9.076000 -4.970620
H -0.384622 -9.076000 4.970620
H 1.477995 4.347865 -6.941800
H -1.477995 -4.347865 6.941800
H 0.082844 5.084768 -7.209282
H -0.082844 -5.084768 7.209282
H 0.283208 4.206557 -5.886551
H -0.283208 -4.206557 5.886551
H 6.685390 -1.485931 -7.556135
H -6.685390 1.485931 7.556135
H 7.603671 -0.212239 -5.846359
H -7.603671 0.212239 5.846359
H 0.921713 -9.956934 1.754035
H -0.921713 9.956934 -1.754035
H 4.444102 6.150198 -3.419125
H -4.444102 -6.150198 3.419125
H 4.227104 7.656107 -2.923005
H -4.227104 -7.656107 2.923005
H 4.968576 7.370277 -4.312085
H -4.968576 -7.370277 4.312085
H 5.846941 -3.909281 -0.971299
H -5.846941 3.909281 0.971299
H 7.440392 -3.993126 -1.093466
H -7.440392 3.993126 1.093466
N 0.942749 0.926314 -1.461082
H 6.583008 -5.327324 -0.879270
N -0.942749 -0.926313 1.461082
H -6.583008 5.327324 0.879270
N 2.104796 -0.935249 -2.478977
H 2.451238 9.029238 -3.929030
N -2.104796 0.935249 2.478977
H -2.451238 -9.029238 3.929030
N 0.682183 -1.737316 -0.695991
H -0.379218 7.228011 -6.156276
N -0.682183 1.737317 0.695991
H 0.379218 -7.228011 6.156276
N 0.182962 3.185931 -1.039076
H 2.176210 -9.602790 3.678466
N -0.182962 -3.185931 1.039076
H -2.176210 9.602790 -3.678466
O 3.301538 -7.060109 -0.564894
O -3.301538 7.060109 0.564894
O 4.506861 -5.926577 -2.486993
O -4.506861 5.926577 2.486993
O 4.317690 2.717456 -6.014969
O -4.317690 -2.717456 6.014969
O 3.258810 4.891548 -5.223904
O -3.258810 -4.891548 5.223904
C 1.886410 -8.592972 0.584908
C -1.886410 8.592973 -0.584908
C 1.147440 -8.836997 -0.693225
C -1.147440 8.836997 0.693225
C 4.755923 -6.382500 1.773533
C -4.755923 6.382500 -1.773533
C 6.746049 2.115586 -4.762482
C -6.746049 -2.115586 4.762482
C 3.122227 1.300754 -8.107887
C -3.122227 -1.300753 8.107887
C 1.976796 3.795460 -3.476283
C -1.976796 -3.795460 3.476283
C 0.571164 -2.919568 -0.011742
C -0.571164 2.919568 0.011742
C 0.883952 2.270468 -1.698197
C -0.883952 -2.270468 1.698197
C 1.768453 0.349123 -2.382048
C -1.768453 -0.349123 2.382048
C 2.288854 1.391385 -3.263724
C -2.288854 -1.391385 3.263724
C 1.645565 -1.874115 -1.661552
C -1.645565 1.874115 1.661552
C 2.445888 6.021889 -5.124153
C -2.445888 -6.021889 5.124153
C 2.165784 -3.235715 -1.618481
C -2.165784 3.235715 1.618481
C 1.818849 -5.173229 -0.184600
C -1.818849 5.173229 0.184600
C 6.203735 -4.941970 -5.548567
C -6.203735 4.941970 5.548567
C 3.190701 -3.880347 -2.314705
C -3.190701 3.880347 2.314705
C 3.515541 -5.160677 -1.920831
C -3.515541 5.160677 1.920831
C 1.494557 -3.878220 -0.581858
C -1.494557 3.878220 0.581858
C 3.468431 2.572360 -4.950182
C -3.468431 -2.572360 4.950182
C 1.705639 2.585976 -2.846285
C -1.705639 -2.585976 2.846285
C 1.224861 6.024229 -5.790347
C -1.224861 -6.024229 5.790347
C 3.186136 1.369046 -4.328426
C -3.186136 -1.369046 4.328426
C 5.249483 -5.508736 -4.707066
C -5.249483 5.508736 4.707066
C 5.413638 -5.300028 -3.347163
C -5.413638 5.300028 3.347163
C 2.863487 3.776313 -4.526166
C -2.863487 -3.776312 4.526166
C 7.411067 -4.067354 -3.676786
C -7.411067 4.067355 3.676786
C 3.357960 -8.148963 2.916428
C -3.357960 8.148963 -2.916428
C 2.910049 -7.662404 0.635307
C -2.910049 7.662404 -0.635307
C 2.841758 -5.799778 -0.854885
C -2.841758 5.799778 0.854885
C 4.974675 1.561798 -6.440807
C -4.974675 -1.561798 6.440807
C 5.087520 -0.295935 -7.898800
C -5.087520 0.295935 7.898800
C 4.104965 -6.316122 -5.223888
C -4.104965 6.316122 5.223888
C 7.262616 -4.226066 -5.039153
C -7.262616 4.226066 5.039153
C 0.919011 8.291931 -5.018731
C -0.919011 -8.291931 5.018731
C 0.723632 4.810278 -6.520580
C -0.723632 -4.810277 6.520580
C 6.251211 -0.687608 -7.279279
C -6.251211 0.687608 7.279279
C 4.409171 0.846958 -7.484465
C -4.409171 -0.846958 7.484465
C 6.794985 0.067016 -6.259444
C -6.794985 -0.067016 6.259444
C 1.619088 -9.311855 1.749224
C -1.619088 9.311855 -1.749224
C 4.259442 7.068619 -3.706769
C -4.259442 -7.068619 3.706769
C 6.596867 -4.444773 -1.305065
C -6.596867 4.444773 1.305065
C 6.167399 1.235865 -5.830292
C -6.167399 -1.235865 5.830292
C 2.144055 8.257891 -4.390675
C -2.144055 -8.257891 4.390675
C 3.655776 -7.401147 1.778225
C -3.655776 7.401147 -1.778225
C 0.463249 7.190312 -5.718723
C -0.463249 -7.190312 5.718723
C 2.359154 -9.094637 2.896913
C -2.359154 9.094637 -2.896913
C 2.944926 7.113509 -4.417448
C -2.944926 -7.113509 4.417448
C 6.474892 -4.604123 -2.786199
C -6.474892 4.604123 2.786199