16
C2 S2 O6 F6
F -1.531120 2.023813 1.488262
O -3.623338 2.222077 -0.054799
C 1.740226 -0.887611 -0.701113
O -2.765391 0.790004 -1.921704
F -0.538269 0.503284 0.373350
O 3.623338 -2.222077 0.054799
O 2.765391 -0.790004 1.921704
C -1.740226 0.887611 0.701113
S -2.429243 1.586108 -0.674641
S 2.429243 -1.586108 0.674641
F 2.882744 -0.138784 -0.855578
F -2.882744 0.138784 0.855578
F 1.531120 -2.023813 -1.488262
F 0.538269 -0.503284 -0.373350
O 1.390975 -2.452367 1.458184
O -1.390975 2.452367 -1.458184