89
Cu1 H36 C44 N8
Cu 0.041483 -0.105975 0.100630
C 5.341634 2.305672 0.627753
H -4.962491 -0.683532 0.984884
C 3.821797 4.128171 0.752817
H 2.172496 -1.171565 -4.865881
C 3.707956 -4.911120 -6.777289
C 6.376421 3.173456 0.849745
H -4.098158 4.883098 7.112805
H -3.329996 6.112332 6.438849
C 1.907554 2.752528 2.598484
H -3.386490 -4.500867 0.481995
C 4.887917 4.982230 0.965925
N 3.227563 -4.127217 -5.605618
H -6.913572 -2.733272 -1.949372
H -2.231151 -4.197372 -1.945371
H -5.241013 -5.795681 -0.062290
H -0.015976 -4.127217 -3.045112
H -7.191888 -6.147980 -1.164684
H -8.159857 -4.874518 -1.204265
H -7.330574 -5.289346 -2.508340
C 1.833974 1.964049 1.392588
H 3.317380 -5.632494 -4.306838
H -5.083594 -1.386605 -1.469887
H 2.484256 -4.433763 -2.490448
C 2.816245 0.945279 -0.635262
H 2.946358 -5.351875 -7.209087
H -4.348639 1.343331 2.292419
C 2.198296 -2.681418 -3.483404
C -4.091364 -0.317507 1.088288
H 0.411579 3.170406 3.961527
C 2.397791 -2.085102 -4.733738
H -3.170562 1.320455 4.518506
C -4.007756 -2.811052 -0.479517
N 6.142445 4.492671 1.018804
C 0.348315 -2.364196 -1.883326
C -2.869037 -0.822316 0.505212
H -1.518084 4.478945 2.618325
C 1.575982 -1.909715 -2.359207
C -2.778188 -1.987496 -0.262960
H -4.793176 5.708179 5.932601
C -3.941363 5.365031 6.275212
C -4.088511 -4.128742 -0.039727
C -6.173876 -3.093196 -1.475851
H -4.074753 2.770829 6.091688
H -2.478671 5.883566 4.213304
C -1.553345 -3.547677 -1.807882
C -5.191245 -4.894344 -0.361481
C -0.347729 -3.509550 -2.402518
C -7.313382 -5.246643 -1.529640
C 3.077193 -4.718957 -4.414857
C -5.093133 -2.292517 -1.187943
C 2.573284 -4.008259 -3.335691
C -1.621235 -2.411475 -0.918793
C -3.756001 0.779043 1.811539
C -1.548947 1.822214 2.430869
C -0.169502 1.956423 2.291113
C 0.672037 2.741852 3.154239
C -3.003282 2.253819 4.453191
N 1.823489 -0.000285 -0.825696
C -2.210103 2.738802 3.424457
N -0.428855 -1.714502 -0.952947
N -1.808562 -0.041463 0.864985
C -2.031293 4.111395 3.328633
N -6.190730 -4.378859 -1.092490
H 6.941166 6.238915 1.683544
H 7.928881 4.991380 1.849778
C -2.323485 0.923928 1.714118
H 3.068363 -2.416050 -6.622884
C -3.548527 3.112452 5.378611
C -2.606708 4.944102 4.274771
H 3.963629 -0.610327 -3.155435
N 0.577918 1.415011 1.259134
H 4.586651 1.361633 -1.763188
H 4.144219 -4.310229 -7.416998
H 4.349723 -5.588266 -6.476899
N -3.338248 4.439293 5.274863
H 5.521305 1.381459 0.496368
H 2.940161 4.480471 0.714807
H 7.267881 2.845559 0.884987
H 2.676095 3.194808 2.939309
H 4.735515 5.914068 1.076347
H 7.699728 5.645650 0.405611
C 2.922183 -2.826303 -5.778059
C 7.273275 5.421460 1.260182
C 4.021213 2.764728 0.594130
C 3.823046 0.809545 -1.650123
C 2.858064 1.848141 0.442958
C 2.230812 -0.761312 -1.895165
C 3.476155 -0.261078 -2.417705