77
Zn1 H28 C44 N4
Zn 0.189192 0.047178 0.129179
C 5.554259 -1.357610 -4.279680
C -2.182014 -1.332080 3.416207
C 2.328681 -0.945939 -2.363159
C 1.018000 2.304243 -1.758106
C -2.154077 1.002213 2.491390
C 2.416145 1.397077 -3.255045
C 0.063017 4.589391 -1.778455
C 0.796144 -2.939619 0.142075
C 2.275728 -3.310230 -1.502452
C -1.654308 1.995543 1.638048
C 0.398996 -4.999677 2.923405
C -0.578264 3.015466 0.010360
C -0.018239 -3.187473 1.246300
C -3.295126 1.366866 3.382502
C 2.960285 -2.284136 -4.386193
C -1.511152 3.955821 0.565416
C -4.536968 0.755848 3.209662
C 3.315619 -1.376332 -3.398834
C -0.134736 -4.599920 1.710992
C -0.962265 -6.835072 1.353375
C -0.482400 4.674491 -3.055482
C 4.622466 -0.901474 -3.357030
C -0.383250 7.069630 -2.962883
C -5.627438 1.132841 3.981174
C -0.806328 -5.528148 0.923453
C 1.862511 -1.927780 -1.486845
C -0.704256 5.910568 -3.639871
C -5.487203 2.130001 4.935605
C 3.901755 -2.739421 -5.297826
C -0.445151 -7.221426 2.569726
C 5.202942 -2.282860 -5.231262
C 0.408308 5.764196 -1.115713
C 0.238493 -6.317664 3.341130
C -3.166395 2.341687 4.366343
C 0.186087 6.998359 -1.705550
N 1.120619 0.978172 -1.407101
H -2.853186 3.702904 2.103675
N -0.837552 -0.888922 1.613513
H 1.674217 -4.853284 -0.279542
N -0.663354 1.825343 0.698114
H -4.147726 3.388693 5.803428
N 0.966690 -1.726306 -0.469893
H 1.965167 3.405713 -3.325560
H -1.709581 -3.333760 3.495995
H 6.444127 -1.026039 -4.252296
H -2.786739 -1.200792 4.137047
H 3.005806 1.258151 -3.986842
H 2.897745 -3.706562 -2.101272
H 0.871155 -4.379447 3.466444
H 2.064701 -2.596432 -4.438658
H -1.639043 4.854179 0.284259
H -4.637543 0.073687 2.556197
H -1.424565 -7.463110 0.810856
H -0.703544 3.881167 -3.528921
H 4.876970 -0.266032 -2.698248
H -0.553540 7.915503 -3.360606
H -6.468243 0.708767 3.856104
H -1.161351 -5.263296 0.082901
H -1.079402 5.960649 -4.511192
H -6.236582 2.406320 5.449838
H 3.651159 -3.364928 -5.967521
H -0.561976 -8.113806 2.874066
H 5.853572 -2.608070 -5.842199
H 0.800034 5.719412 -0.251354
H 0.607649 -6.594622 4.171468
H -2.322121 2.752422 4.511667
H 0.424815 7.794725 -1.245900
C -2.171241 3.329485 1.557811
C 1.613814 -3.933374 -0.508564
C -1.727165 -0.332155 2.496968
C 1.967870 0.402258 -2.320815
C -4.251021 2.720807 5.135703
C 1.843521 2.565713 -2.898855
C -0.758305 -2.223715 1.934398
C -1.593321 -2.493270 3.068831
C 0.205991 3.249917 -1.125148