406
Dy2 Co2 Si2 P6 H212 C156 N8 O18
H 0.438116 -12.138534 10.788779
H 2.028038 -12.126472 10.603592
H 1.097980 -11.312948 9.587276
H -1.696124 -10.957785 10.418155
H -2.977663 -9.005058 10.272963
H -0.985113 -11.823578 12.500721
H -2.573483 -11.922756 12.329321
H -1.937174 -10.782214 13.254277
H -1.087773 -7.218521 11.912457
H 1.583036 -7.345844 12.875448
H 0.664049 -6.040452 12.767000
H 1.204021 -6.750778 11.440383
H -1.729727 -8.510510 13.701287
H -0.889051 -7.266770 14.254343
H -0.210517 -8.712886 14.162996
H 2.123502 -8.923304 2.002837
H 0.332662 -10.835823 -1.054896
H -1.604810 -7.861835 0.845513
H 2.078621 -12.482975 1.335335
H 3.124961 -12.887727 0.193505
H 1.600176 -12.588854 -0.187853
H 4.019071 -9.545174 1.030064
H 4.611258 -11.026137 0.898972
H 3.554203 -10.687057 2.050904
H 2.464993 -10.924279 -1.868228
H 3.968879 -11.203048 -1.396715
H 3.386992 -9.712704 -1.376663
H -1.902594 -11.645327 -1.141079
H -3.343803 -11.111912 -1.586974
H -2.902272 -11.036859 -0.049141
H 1.569712 -1.186111 9.199565
H 0.699572 -0.493208 12.621524
H 2.596153 -1.136522 11.197803
H 3.282493 -0.069692 10.222093
H 3.756788 -2.695218 1.244828
H -2.371738 -2.275724 -10.141783
H 5.067677 -1.908499 0.771849
H -2.728462 -2.326653 -11.701219
H 3.238739 -0.454341 0.809512
H -1.254363 -2.700579 -11.203444
H 2.999344 -0.769297 2.360311
H -1.658290 -0.623211 -13.255065
H 3.389521 -6.187878 2.266336
H 2.982537 -4.924034 1.370440
H 4.324292 -5.604875 -0.322038
H -3.482583 -0.048249 -11.805371
H 3.458854 -6.876760 0.118249
H 4.982720 -6.744077 0.589234
H 5.791609 -7.179654 3.341059
H 4.498378 -8.069572 3.704899
H 5.930067 -9.778375 3.413710
H 6.319038 -9.456718 4.931343
H 7.210388 -8.875055 3.737384
H 3.486089 -7.725131 7.258236
H 3.564492 -6.882121 8.634671
H 5.606590 -8.647215 7.614328
H 4.868690 -8.794641 9.028423
H 5.922595 -7.613891 8.796762
H 3.754845 -2.025099 8.640428
H 4.870909 -2.508925 9.679276
H -4.313751 -0.018763 -1.896262
H 2.617133 -4.107829 8.860899
H 2.789885 -3.453793 10.311412
H 3.756063 -4.642584 9.849054
H 2.865357 -1.160646 5.379313
H 4.124399 -0.467743 4.669797
H 7.706710 -6.079319 4.553615
H 7.580977 -5.149194 6.910937
H 7.311830 -2.632227 6.747278
H 7.271560 -2.006336 4.287208
H 7.515334 -4.137314 2.934584
C 0.351999 -3.633385 2.003415
C 0.295472 -4.105149 0.654007
C 0.299737 -5.453428 0.706800
C 0.346032 -5.816632 2.095615
C 0.283873 -7.134086 2.590829
C 0.213976 -7.495950 3.937867
C -0.102316 -8.826807 4.413258
C -0.147300 -8.762475 5.752501
C 0.123226 -7.394092 6.122692
C 0.095222 -6.908926 7.441649
C 0.104200 -5.548585 7.818257
H -2.893707 -1.144563 -5.706368
C -0.190790 -5.075481 9.144181
H -4.287356 -1.001158 -6.478626
C -0.221978 -3.731222 9.079118
H -2.960361 -0.349802 -7.094248
C 0.059584 -3.366677 7.718224
C 0.035350 -2.050564 7.228703
C 0.126101 -1.675297 5.885949
C -0.022302 -0.329699 5.386211
C 0.051135 -0.400731 4.044864
C 0.249143 -1.778496 3.704004
C 0.289805 -2.271703 2.390748
C 0.173936 -1.312093 1.344766
C 0.058320 -0.477125 0.486962
C -0.027419 -7.844412 8.522554
C -0.111179 -8.541336 9.493610
C 1.304784 -10.361379 11.417050
C 2.627525 -9.652393 11.148240
C 1.209033 -11.595738 10.517873
C -1.746006 -10.366740 11.224989
C -3.031741 -9.561257 11.077283
C -1.816661 -11.308927 12.437850
C -0.370336 -7.786782 12.316719
C 0.883693 -6.900885 12.352126
C -0.842239 -8.096377 13.736211
C 0.261352 -8.229060 1.571406
C 1.382486 -9.037224 1.419497
C 1.435104 -10.011577 0.426260
C 0.317866 -10.164364 -0.384989
C -0.823294 -9.376304 -0.257702
C -0.836204 -8.408652 0.734724
C 2.680844 -10.869329 0.191684
C 2.340881 -12.338230 0.401698
C 3.816486 -10.499423 1.125611
C 3.168681 -10.658912 -1.241081
C -2.006300 -9.588062 -1.210774
C -2.590429 -10.967166 -0.976732
C -0.204700 -0.963631 8.232761
C 0.763801 -0.683521 9.179787
C 2.854171 -0.197015 11.096489
C 4.405076 -1.992934 1.502841
C 3.675246 -0.684862 1.655246
C 3.725081 -5.536523 1.599775
C 4.158772 -6.249529 0.396361
C 5.423940 -7.844412 3.976986
C 6.299725 -9.101555 4.019954
C 4.091094 -7.243986 7.876441
C 5.225920 -8.158028 8.373375
C 4.260627 -2.813159 8.961850
C -0.558883 -0.331039 -10.099158
C 3.263904 -3.850503 9.549054
C 3.713746 -0.676820 5.546412
C -1.617651 -0.682181 -11.187449
C -2.028579 -2.121597 -11.045421
C 7.605716 -5.163936 4.790054
C -0.994229 -0.439598 -12.557340
C 7.535142 -4.643924 6.107749
C 7.384727 -3.233994 6.016844
C 7.362597 -2.884192 4.638940
C 7.498676 -4.077004 3.881526
N 0.415894 -4.684131 2.871179
N 0.350447 -6.647580 5.012131
N 0.273779 -4.491137 6.970568
N 0.314924 -2.533050 4.838606
O 3.060733 -3.632045 3.535137
O 3.287379 -6.104783 5.114837
O 2.983077 -3.439050 6.388416
O 5.070677 -2.395005 2.684327
O 4.830627 -4.767226 2.183493
O 5.450807 -7.351205 5.284358
O 4.826419 -6.174476 7.180254
O 5.010449 -3.330491 7.918971
O 4.595647 -1.499726 6.304908
C -3.441289 -0.554858 -6.265733
H -3.149863 -8.987635 11.864274
H -3.793806 -10.172405 11.002515
H -3.437691 -8.633812 -0.056537
H -3.854873 -8.737011 -1.597295
H -2.764767 -7.662140 -1.135765
H -2.052112 -0.451660 7.566247
C -3.115616 -8.564120 -0.979283
C -1.382406 -0.235882 8.205591
H 3.149863 8.987635 -11.864274
H 3.793806 10.172405 -11.002515
H 3.437691 8.633812 0.056537
H 3.854873 8.737011 1.597295
H 2.764767 7.662140 1.135765
H 2.052112 0.451660 -7.566247
C 3.115616 8.564120 0.979283
C 1.382406 0.235882 -8.205591
Dy -1.561982 4.583345 -4.966531
Co -5.787911 4.165861 -5.103513
Si 0.205704 9.288787 -11.172762
P -4.551405 3.747841 -3.372650
P -4.723423 6.000647 -5.517546
P -4.448450 3.103187 -6.416897
H -0.261548 3.570394 0.129616
H -0.275630 6.048493 0.033809
H 0.248592 9.597443 -3.877748
H 0.324053 9.483523 -6.346780
H 0.335468 5.608895 -9.918139
H 0.395914 3.134816 -9.798767
H -1.309796 10.673654 -12.367305
H -2.600314 9.238260 -10.259985
H -3.359114 10.303749 -11.183027
H -2.770882 8.960830 -11.827026
H -0.438116 12.138534 -10.788779
H -2.028038 12.126472 -10.603592
H -1.097980 11.312948 -9.587276
H 1.696124 10.957785 -10.418155
H 2.977663 9.005058 -10.272963
H 0.985113 11.823578 -12.500721
H 2.573483 11.922756 -12.329321
H 1.937174 10.782214 -13.254277
H 1.087773 7.218521 -11.912457
H -1.583036 7.345844 -12.875448
H -0.664049 6.040452 -12.767000
H -1.204021 6.750778 -11.440383
H 1.729727 8.510510 -13.701287
H 0.889051 7.266770 -14.254343
H 0.210517 8.712886 -14.162996
H -2.123502 8.923304 -2.002837
H -0.332662 10.835823 1.054896
H 1.604810 7.861835 -0.845513
H -2.078621 12.482975 -1.335335
H -3.124961 12.887727 -0.193505
H -1.600176 12.588854 0.187853
H 2.371738 2.275724 10.141783
H -4.019071 9.545174 -1.030064
H 2.728462 2.326653 11.701219
H -4.611258 11.026137 -0.898972
H 1.254363 2.700579 11.203444
H -3.554203 10.687057 -2.050904
H -2.464993 10.924279 1.868228
H 1.658290 0.623211 13.255065
H -3.968879 11.203048 1.396715
H -3.386992 9.712704 1.376663
H 1.902594 11.645327 1.141079
H 3.482583 0.048249 11.805371
H 3.343803 11.111912 1.586974
H 2.902272 11.036859 0.049141
H -1.569712 1.186111 -9.199565
H 4.313751 0.018763 1.896262
H -0.699572 0.493208 -12.621524
H -2.596153 1.136522 -11.197803
H -3.282493 0.069692 -10.222093
H -3.756788 2.695218 -1.244828
H -5.067677 1.908499 -0.771849
H -3.238739 0.454341 -0.809512
H -2.999344 0.769297 -2.360311
H -3.389521 6.187878 -2.266336
H -2.982537 4.924034 -1.370440
H -4.324292 5.604875 0.322038
H -3.458854 6.876760 -0.118249
H 2.893707 1.144563 5.706368
H -4.982720 6.744077 -0.589234
H 4.287356 1.001158 6.478626
H -5.791609 7.179654 -3.341059
H 2.960361 0.349802 7.094248
H -4.498378 8.069572 -3.704899
H -5.930067 9.778375 -3.413710
H -6.319038 9.456718 -4.931343
H -7.210388 8.875055 -3.737384
H -3.486089 7.725131 -7.258236
H -3.564492 6.882121 -8.634671
H -5.606590 8.647215 -7.614328
H -4.868690 8.794641 -9.028423
H -5.922595 7.613891 -8.796762
H -3.754845 2.025099 -8.640428
H -4.870909 2.508925 -9.679276
H -2.617133 4.107829 -8.860899
H -2.789885 3.453793 -10.311412
H -3.756063 4.642584 -9.849054
H -2.865357 1.160646 -5.379313
H -4.124399 0.467743 -4.669797
H -7.706710 6.079319 -4.553615
H -7.580977 5.149194 -6.910937
H -7.311830 2.632227 -6.747278
H -7.271560 2.006336 -4.287208
H -7.515334 4.137314 -2.934584
C -0.351999 3.633385 -2.003415
C -0.295472 4.105149 -0.654007
C -0.299737 5.453428 -0.706800
C -0.346032 5.816632 -2.095615
C -0.283873 7.134086 -2.590829
C -0.213976 7.495950 -3.937867
C 0.102316 8.826807 -4.413258
C 0.147300 8.762475 -5.752501
C -0.123226 7.394092 -6.122692
C -0.095222 6.908926 -7.441649
C -0.104200 5.548585 -7.818257
C 0.190790 5.075481 -9.144181
C 0.221978 3.731222 -9.079118
C -0.059584 3.366677 -7.718224
C -0.035350 2.050564 -7.228703
C -0.126101 1.675297 -5.885949
C 0.022302 0.329699 -5.386211
C -0.051135 0.400731 -4.044864
C -0.249143 1.778496 -3.704004
C -0.289805 2.271703 -2.390748
C -0.173936 1.312093 -1.344766
C -0.058320 0.477125 -0.486962
C 0.027419 7.844412 -8.522554
C 0.111179 8.541336 -9.493610
C -1.304784 10.361379 -11.417050
C -2.627525 9.652393 -11.148240
C -1.209033 11.595738 -10.517873
C 1.746006 10.366740 -11.224989
C 3.031741 9.561257 -11.077283
C 1.816661 11.308927 -12.437850
C 0.370336 7.786782 -12.316719
C -0.883693 6.900885 -12.352126
C 0.842239 8.096377 -13.736211
C 0.558883 0.331039 10.099158
C -0.261352 8.229060 -1.571406
C -1.382486 9.037224 -1.419497
C 1.617651 0.682181 11.187449
C -1.435104 10.011577 -0.426260
C 2.028579 2.121597 11.045421
C -0.317866 10.164364 0.384989
C 0.994229 0.439598 12.557340
C 0.823294 9.376304 0.257702
C 0.836204 8.408652 -0.734724
C -2.680844 10.869329 -0.191684
C -2.340881 12.338230 -0.401698
C -3.816486 10.499423 -1.125611
C -3.168681 10.658912 1.241081
C 2.006300 9.588062 1.210774
C 2.590429 10.967166 0.976732
C 0.204700 0.963631 -8.232761
C -0.763801 0.683521 -9.179787
C 3.441289 0.554858 6.265733
C -2.854171 0.197015 -11.096489
C -4.405076 1.992934 -1.502841
C -3.675246 0.684862 -1.655246
C -3.725081 5.536523 -1.599775
C -4.158772 6.249529 -0.396361
C -5.423940 7.844412 -3.976986
C -6.299725 9.101555 -4.019954
C -4.091094 7.243986 -7.876441
C -5.225920 8.158028 -8.373375
C -4.260627 2.813159 -8.961850
C -3.263904 3.850503 -9.549054
C -3.713746 0.676820 -5.546412
C -7.605716 5.163936 -4.790054
C -7.535142 4.643924 -6.107749
C -7.384727 3.233994 -6.016844
C -7.362597 2.884192 -4.638940
C -7.498676 4.077004 -3.881526
N -0.415894 4.684131 -2.871179
N -0.350447 6.647580 -5.012131
N -0.273779 4.491137 -6.970568
N -0.314924 2.533050 -4.838606
O -3.060733 3.632045 -3.535137
O -3.287379 6.104783 -5.114837
O -2.983077 3.439050 -6.388416
O -5.070677 2.395005 -2.684327
O -4.830627 4.767226 -2.183493
O -5.450807 7.351205 -5.284358
O -4.826419 6.174476 -7.180254
O -5.010449 3.330491 -7.918971
O -4.595647 1.499726 -6.304908
H 0.146322 -0.455681 -5.905079
H 0.016899 -0.325678 -3.438189
H -0.146322 0.455681 5.905079
H -0.016899 0.325678 3.438189
H -1.131596 -8.566800 -2.775370
H -2.301267 -9.549195 -3.251523
H -0.872497 -10.144260 -2.841924
H 0.728933 -1.787877 -10.653168
H -0.224369 -1.034664 -12.674996
H 1.131596 8.566800 2.775370
H 2.301267 9.549195 3.251523
H 0.872497 10.144260 2.841924
H -0.728933 1.787877 10.653168
H 3.559423 -1.190131 -7.127951
H 4.726012 -1.660555 -8.117475
H 4.107281 -0.191654 -8.252951
H 0.224369 1.034664 12.674996
H 1.785482 -3.428328 -9.149872
H 3.251419 -3.640086 -8.543742
H 2.095854 -3.002133 -7.638102
H 3.766858 -0.848371 -10.692338
H 4.302140 -2.315931 -10.347600
H 2.868036 -2.128298 -11.030292
H -3.559423 1.190131 7.127951
H -4.726012 1.660555 8.117475
H -4.107281 0.191654 8.252951
H -1.785482 3.428328 9.149872
H -3.251419 3.640086 8.543742
H -2.095854 3.002133 7.638102
H -3.766858 0.848371 10.692338
H -4.302140 2.315931 10.347600
H -2.868036 2.128298 11.030292
C -1.536535 -9.450017 -2.648184
C 1.599073 -0.810844 -9.103861
C 0.605258 -1.074871 -10.037792
C 1.536535 9.450017 2.648184
C 2.863173 -1.656534 -9.023405
C -1.599073 0.810844 9.103861
C 3.906881 -1.127140 -8.043815
C -0.605258 1.074871 10.037792
C 2.462752 -3.058423 -8.544662
C 3.506816 -1.744990 -10.396281
C -2.863173 1.656534 9.023405
C -3.906881 1.127140 8.043815
C -2.462752 3.058423 8.544662
C -3.506816 1.744990 10.396281
Dy 1.561982 -4.583345 4.966531
Co 5.787911 -4.165861 5.103513
Si -0.205704 -9.288787 11.172762
P 4.551405 -3.747841 3.372650
P 4.723423 -6.000647 5.517546
P 4.448450 -3.103187 6.416897
H 0.261548 -3.570394 -0.129616
H 0.275630 -6.048493 -0.033809
H -0.248592 -9.597443 3.877748
H -0.324053 -9.483523 6.346780
H -0.335468 -5.608895 9.918139
H -0.395914 -3.134816 9.798767
H 1.309796 -10.673654 12.367305
H 2.600314 -9.238260 10.259985
H 3.359114 -10.303749 11.183027
H 2.770882 -8.960830 11.827026