108
P6 H62 Ru2 C32 S2 Cl2 O2
H 2.645935 6.287148 7.166515
P -5.833300 -3.263913 -3.263934
Ru 4.057484 4.510379 4.204826
C 7.303100 2.893628 4.272348
C 5.368353 1.571461 2.774837
C 1.529782 2.658692 0.943559
C 2.330943 3.587994 1.732842
C 7.140289 6.257128 4.961674
C 2.852441 3.345227 2.949350
C 4.909145 7.631503 5.708215
C 5.809979 5.441378 7.266751
H -2.500395 -4.441595 -1.352006
H -2.634565 -2.490321 -3.302394
C 1.294412 6.754409 4.459434
C 0.669592 4.052645 5.033527
C 2.002003 5.581035 6.952441
C 4.085312 5.800308 2.928057
S 1.200354 1.051338 1.501074
H -5.012786 -1.092452 -3.553083
Cl 3.956285 2.709073 5.892149
H -4.683398 -1.609311 -2.074416
H -5.576652 -8.144447 -6.211200
H -7.773768 -2.122255 -3.893206
H -4.807340 -8.017843 -4.814210
H -7.899718 -3.670222 -4.276638
H -4.050066 -7.666744 -6.177802
H -7.026558 -2.688712 -5.190658
H -6.321328 -6.155322 -7.700227
H -6.157129 -1.100283 -2.434369
H -4.969767 -5.300417 -7.750221
O 4.081643 6.610837 2.103571
H -0.445962 -6.939748 -4.912622
H -1.905593 -7.508815 -4.586285
H -1.129963 -6.623889 -3.500822
H -6.333838 -4.613881 -7.272264
H -0.465407 -3.884275 -4.089132
H -7.701853 -5.463567 -5.090710
H -0.934800 -3.213402 -5.463697
H -7.105634 -6.481622 -4.007761
H 0.123639 -4.412881 -5.480555
H -7.518339 -7.010228 -5.461765
H -1.102695 -5.868178 -7.216966
H -2.240395 -4.763979 -7.437709
H -2.645935 -6.287148 -7.166515
Ru -4.057484 -4.510379 -4.204826
C -1.529782 -2.658692 -0.943559
C -2.330943 -3.587994 -1.732842
C -2.852441 -3.345227 -2.949350
C -4.909145 -7.631503 -5.708215
C -5.809979 -5.441378 -7.266751
C -1.294412 -6.754409 -4.459434
C -0.669592 -4.052645 -5.033527
C -7.303100 -2.893628 -4.272348
C -2.002003 -5.581035 -6.952441
C -5.368353 -1.571461 -2.774837
C -4.085312 -5.800308 -2.928057
C -7.140289 -6.257128 -4.961674
S -1.200354 -1.051338 -1.501074
Cl -3.956285 -2.709073 -5.892149
O -4.081643 -6.610837 -2.103571
H 7.056469 4.752233 1.952105
H 7.167077 3.272136 1.352825
H -0.121996 1.696760 -1.635848
H 1.053457 3.657170 -0.773951
H 5.845903 4.140094 1.103629
H 0.121996 -1.696760 1.635848
H -1.053457 -3.657170 0.773951
H -5.845903 -4.140094 -1.103629
H -7.056469 -4.752233 -1.952105
H -7.167077 -3.272136 -1.352825
C 6.558499 3.933872 1.744265
C 0.306252 0.647379 0.060968
C 0.301718 1.712422 -0.786362
C 0.982169 2.841420 -0.290919
P 5.833300 3.263913 3.263934
P 5.450588 5.910989 5.566270
C -0.306252 -0.647379 -0.060968
P 2.033648 5.254865 5.153175
C -0.301718 -1.712422 0.786362
C -0.982169 -2.841420 0.290919
C -6.558499 -3.933872 -1.744265
H 7.773768 2.122255 3.893206
H 7.899718 3.670222 4.276638
H 2.500395 4.441595 1.352006
H 7.026558 2.688712 5.190658
H 2.634565 2.490321 3.302394
H 6.157129 1.100283 2.434369
H 6.333838 4.613881 7.272264
H 5.012786 1.092452 3.553083
H 7.701853 5.463567 5.090710
H 4.683398 1.609311 2.074416
H 5.576652 8.144447 6.211200
H 7.105634 6.481622 4.007761
H 4.807340 8.017843 4.814210
H 7.518339 7.010228 5.461765
H 4.050066 7.666744 6.177802
H 6.321328 6.155322 7.700227
H 4.969767 5.300417 7.750221
H 0.445962 6.939748 4.912622
H 1.905593 7.508815 4.586285
H 1.129963 6.623889 3.500822
H 0.465407 3.884275 4.089132
H 0.934800 3.213402 5.463697
P -5.450588 -5.910989 -5.566270
H -0.123639 4.412881 5.480555
P -2.033648 -5.254865 -5.153175
H 1.102695 5.868178 7.216966
H 2.240395 4.763979 7.437709