204
Dy1 Co1 Si1 P3 H105 C79 N5 O9
C -0.324212 -3.232878 1.235436
C -1.224296 -3.916975 0.444650
C -3.690131 -1.694221 2.603004
C -4.315241 -0.747699 1.669429
C -2.131288 2.603255 3.097064
C -3.308061 3.121374 3.751564
C 1.564735 3.798743 4.283904
C 2.051356 4.379664 5.538672
C 3.964968 0.867218 2.856670
C 5.110381 0.400687 2.107180
C 8.112171 -0.817231 -5.397767
C 3.290753 -3.046714 2.199999
C 9.203711 0.692269 -3.730974
C 3.526513 -4.414908 2.680231
N -1.404694 0.543562 -1.424004
C -8.687885 3.639494 0.324055
N -0.252882 3.036142 -0.513077
N 2.407480 1.824506 -0.656151
C 8.041699 -4.423880 -1.616914
N 1.262279 -0.697009 -1.523667
C 8.895704 -2.777561 0.004929
N -4.798934 -5.271712 1.533824
H 8.481613 -1.822068 -2.658009
H -8.516475 0.956936 0.381733
H -9.004081 3.726968 -0.599756
H 8.621608 -0.391072 -6.118412
H -9.390528 3.235764 0.872923
H 8.618900 -1.577588 -5.043505
H -8.460921 4.525455 0.678051
H 9.689846 -0.059116 -3.331076
H 9.733516 1.073569 -4.459261
H 9.044529 1.376366 -3.048231
H 8.621599 -4.044823 -2.309537
O -1.115087 -0.407445 1.357063
H 8.529098 -5.119192 -1.126875
O 0.485463 1.960876 2.135416
O 1.820633 -0.516452 1.460237
O -0.896967 -2.685601 2.453921
O -2.562355 -1.086384 3.316063
O -1.091308 2.385690 4.033351
H 9.464261 -2.367103 -0.678741
O 1.311825 2.376718 4.484893
H 8.658202 -2.104679 0.675759
O 3.294364 -0.236309 3.493515
H 9.379407 -3.513246 0.434819
O 2.271074 -2.434391 3.059612
H 0.065320 -2.492708 0.706135
H 0.413529 -3.847444 1.479576
H -0.767148 -4.255660 -0.353165
H -1.598323 -4.670604 0.949874
H -1.948037 -3.313624 0.177063
H -4.363520 -2.001504 3.259173
H -3.369660 -2.485979 2.102583
H -5.061842 -1.187316 1.211328
H -4.647858 0.028358 2.165142
H -3.653997 -0.456117 1.008552
H -2.353397 1.748694 2.647794
H -1.827930 3.242493 2.407475
H -4.016574 3.264922 3.091080
H -3.617897 2.482136 4.428333
H -3.092546 3.973692 4.187362
H 0.731227 4.251817 4.004445
H 2.241623 3.922104 3.571925
H 2.223701 5.337400 5.408394
H 1.374698 4.260788 6.236670
H 2.880351 3.933319 5.807285
C 0.925600 -1.763752 5.697165
H 4.259069 1.515428 3.542555
C -0.470428 -1.855712 5.558083
H 3.335885 1.327021 2.245580
C -1.037048 -0.590694 5.861322
H 5.554515 1.163287 1.681889
C 0.021619 0.279568 6.188481
H 5.738536 -0.045659 2.714517
C 1.228849 -0.433688 6.086624
H 4.815468 -0.231823 1.420741
H 4.129199 -2.521866 2.243317
H 2.978969 -3.062415 1.261624
H 4.205801 -4.843310 2.121676
H 3.837370 -4.385750 3.609758
H 2.691999 -4.926299 2.630675
C -1.736391 -0.646767 -2.019910
C -3.126421 -0.622095 -2.423143
C -3.613667 0.580122 -2.070843
C -2.540057 1.331507 -1.454438
C -2.621712 2.672786 -1.041267
C -1.551928 3.475759 -0.618838
C -1.629657 4.861897 -0.263939
C -0.382688 5.267869 0.053372
C 0.478231 4.119483 -0.123074
C 1.876701 4.132941 0.013664
C 2.780870 3.101188 -0.309271
C 4.203616 3.240250 -0.380352
C 4.690165 2.055977 -0.806426
Dy 0.398643 0.808005 0.126302
C 3.575275 1.163287 -0.987980
C 3.674747 -0.177992 -1.426391
C 2.604742 -1.048254 -1.659448
Co 0.254430 -0.427856 4.236985
C 2.682345 -2.373832 -2.213317
C 1.419646 -2.802234 -2.443083
Si -3.000702 -4.986858 -4.408508
C 0.535138 -1.734594 -2.045807
C -0.848298 -1.707678 -2.282729
C -1.428310 -2.844850 -2.963768
C -1.991589 -3.719597 -3.550697
C 2.483190 5.375530 0.447947
P -1.101673 -1.113523 2.703382
C 2.999358 6.405040 0.801464
H 1.552059 -2.463549 5.558531
C -3.980600 3.303052 -1.159033
H -0.952622 -2.634013 5.305841
P 0.252942 1.621968 3.581897
H -1.960296 -0.370885 5.846780
C -5.018276 2.841007 -0.358870
H -0.065870 1.192445 6.434102
P 1.931034 -0.867248 2.920984
H 2.097056 -0.086032 6.252187
C -6.320220 3.318753 -0.527743
H -3.604578 -1.321892 -2.853815
C -6.542493 4.256303 -1.517261
H -4.505113 0.882919 -2.203566
C -5.529814 4.767693 -2.321279
H -2.415282 5.395717 -0.254451
C -4.241866 4.269760 -2.120229
H -0.121015 6.135887 0.336389
C -7.438283 2.742317 0.352847
H 4.708370 4.016308 -0.166676
C -6.979089 2.632413 1.799310
H 5.604386 1.849627 -0.958770
C -7.795780 1.333750 -0.167058
H 3.480110 -2.860550 -2.387305
H 1.162481 -3.645580 -2.800404
H -4.841052 2.192797 0.311451
C -5.815033 5.772531 -3.434762
H -7.428733 4.565828 -1.655607
C -6.276523 5.018903 -4.667936
H -3.528451 4.599473 -2.652200
C -6.902798 6.761668 -3.047603
H -7.705917 2.262328 2.344878
C -4.596941 6.624849 -3.750100
H -6.199702 2.040277 1.851805
C 5.055132 -0.673682 -1.781347
H -6.739053 3.520618 2.136295
C 5.761793 -0.065845 -2.813578
H -8.092305 1.394309 -1.098415
C 7.056437 -0.465089 -3.146790
H -7.007603 0.755071 -0.110548
C 7.609258 -1.526000 -2.433264
C 6.926781 -2.167481 -1.395186
C 5.642774 -1.718893 -1.085743
C 7.864781 0.198822 -4.278620
H -7.060822 4.476111 -4.445736
H -6.510896 5.658141 -5.374717
C 7.139213 1.396552 -4.888509
H -5.554983 4.435738 -4.982953
C 7.622379 -3.318110 -0.647218
H -6.624523 7.259601 -2.250095
H -7.056995 7.385206 -3.785910
C 6.753058 -3.939405 0.376447
H -7.732804 6.274950 -2.853049
H -4.314845 7.102595 -2.943110
C -3.483262 -6.238420 -3.115689
H -3.866957 6.048413 -4.060509
C -4.136790 -5.561051 -1.873286
H -4.822870 7.270816 -4.449726
C -3.974263 -6.180103 -0.692886
H 5.352485 0.636195 -3.305744
C -4.502129 -5.641797 0.549056
C -1.924513 -5.785345 -5.712609
H 5.161102 -2.140566 -0.383814
C -0.594814 -6.195804 -5.167249
C -1.724498 -4.950971 -6.963432
H 7.252059 -1.133485 -5.747719
C -4.554780 -4.082953 -4.978322
C -4.356107 -2.802234 -5.671846
C -5.636925 -5.000316 -5.462088
H 6.274005 1.107213 -5.248557
H 6.992873 2.078407 -4.198607
H 7.683479 1.775609 -5.612164
H 7.244302 -4.811909 -2.032704
H 5.941772 -4.282575 -0.049447
H 7.233406 -4.677333 0.808191
H 6.512201 -3.268765 1.049131
H -4.122238 -6.884387 -3.509928
H -2.679710 -6.738596 -2.829894
H -3.770655 -4.645931 -1.794324
H -5.109069 -5.475820 -2.044647
H -2.998509 -6.292250 -0.562396
H -4.353125 -7.090737 -0.793639
H -2.390270 -6.621963 -5.996823
H -0.726270 -6.736353 -4.360209
H -0.116696 -6.725138 -5.839191
H -0.071205 -5.399560 -4.947477
H -2.596618 -4.681818 -7.319627
H -1.200774 -4.152484 -6.743008
H -1.246381 -5.480305 -7.635374
H -4.934178 -3.775670 -4.107082
H -3.619926 -2.313272 -5.247977
H -4.139508 -2.968211 -6.611235
H -5.175745 -2.268414 -5.614402
H -5.650914 -5.807775 -4.906643
H -6.502711 -4.544999 -5.397431
H -5.464855 -5.244797 -6.394243