226
Ni2 H100 C110 I2 N12
H -6.196569 -0.762327 -3.709644
C 6.115113 6.702589 -1.835656
H 7.429903 -3.981644 -8.550684
H 7.927919 -2.603353 -9.193412
H -7.147356 1.519951 -5.891778
H -6.818110 3.744387 0.843855
H -7.515678 -0.253318 -4.458168
H -7.299835 0.072250 -2.907208
H -5.267206 3.147789 4.849345
H -4.881041 3.608872 6.812745
H -3.318362 3.073420 -2.027432
H -10.903812 4.729353 5.040838
H -2.576180 3.645229 -3.325365
H -6.460498 3.273388 -1.524502
H -3.718079 4.509553 -2.609872
H -12.121647 4.298017 4.095048
H -11.155525 3.182494 4.717088
H -8.820130 5.238362 5.097104
C 5.845234 7.748702 -2.925756
H -5.557342 4.458322 -7.164461
H -5.980965 3.048631 -7.793841
H -7.072169 3.954271 -7.054172
H -10.724085 2.296686 2.435457
C 7.859739 6.576990 1.584884
H -11.668377 3.420472 1.795995
H 7.972096 4.727700 2.437210
H -5.130815 4.694647 7.961944
H -6.200277 3.531198 7.715977
C -5.243301 6.011791 5.680709
C 5.366154 7.133925 -4.198689
C -7.208084 6.008486 7.138256
C 2.577430 -2.398428 0.455444
H -8.362790 2.536317 2.148482
C 1.855000 -0.504517 1.254829
C 5.211735 3.108126 -0.949592
C 7.165889 8.457679 -3.306599
C 4.863604 8.765068 -2.445861
C -10.317030 5.626729 2.536794
C 9.316413 6.691021 1.216753
C 1.545859 -2.707469 1.413606
C 7.692599 5.623424 2.719459
C 1.099761 -1.527493 1.903040
C 2.600581 1.804203 1.062589
C 5.581996 2.219012 -1.937809
C -4.266028 -3.761845 4.405696
C 0.630212 -4.051055 3.266982
H -10.163011 3.251904 1.280652
C 5.834264 4.476501 -0.883681
C 2.122248 -5.135178 1.817535
C 1.065795 -4.084107 1.863963
C 6.431138 -1.301083 -4.870931
C 1.056165 1.460456 3.928078
C -5.132711 -4.796390 4.088989
C 4.234450 2.800737 -0.023652
C -4.695210 -1.433294 3.579278
C 6.558356 4.841731 0.206818
C -1.460143 -2.079471 -0.620477
C 4.192529 -2.996679 -1.235643
C 0.715517 1.280320 2.584120
C 5.243754 -1.899334 -2.803951
C 5.755387 0.422607 -3.158952
C 1.750555 0.853942 1.584423
C -1.895137 -2.553775 0.601302
C -3.579553 -3.750277 5.611607
C 3.632537 3.782397 0.839061
C -1.434535 -3.742013 1.267247
C -2.171919 -1.163915 -1.356851
C 5.777827 -0.894537 -3.589889
C 0.187181 -4.712106 -0.419044
C -0.214654 -4.604685 0.991264
C -5.279455 -5.863987 4.992120
C 6.394124 2.551190 -3.059621
C -0.509312 -5.997849 1.432995
C -4.074908 -2.652932 3.399826
C -3.198569 -2.885953 2.339416
C -5.382604 0.652322 3.276716
C -4.582352 -5.885471 6.185039
C 3.296243 -3.325551 -0.273228
C 5.597564 5.395361 -1.918260
C -3.765504 -4.826137 6.485910
C 4.814117 -3.971729 -2.086626
C 5.440974 -3.309025 -3.064810
C -0.588216 1.483593 2.142198
C 0.058755 1.840561 4.821593
C 2.617059 3.174231 1.471697
C -5.353979 -1.015179 4.777017
C -1.933098 -0.844958 -2.742030
C -5.728703 0.265607 4.603010
C 7.771499 -1.694409 -4.891713
C -2.600998 -2.652932 5.973458
C 2.462582 1.275362 4.408853
C 8.263679 -2.264565 -6.062874
C -3.767508 0.199502 -2.015980
C 6.489370 1.457151 -3.835477
C -2.280990 -3.968423 2.302530
C -2.934683 -0.063266 -3.165163
C 6.178970 -1.953871 -7.157883
C 5.643705 -1.380409 -6.018142
C -2.311180 2.466906 5.409111
C -4.717173 -7.086931 7.112828
C 7.459445 -2.433133 -7.196070
C -1.251153 2.030613 4.418380
C -1.558483 1.855434 3.095767
C -0.950838 1.362951 0.685674
C -4.777571 1.124973 -2.027579
C -5.935944 -4.784821 2.809847
H 7.186871 7.909007 -0.631970
C -5.315562 1.586056 -0.861154
C 4.206116 -0.907758 -6.017854
C -4.477755 2.951126 -3.733469
C -5.153140 1.794287 -3.338855
C 7.417802 7.918923 2.083516
C 8.651849 -1.570462 -3.690781
C -6.130763 3.367588 4.517275
C -4.803200 3.532851 -4.956540
C -5.700744 1.959550 1.265769
C -6.637275 2.823874 3.333979
C -6.998073 4.276533 5.193395
C -5.833870 1.781066 2.631852
C -6.333736 5.069794 6.231732
C 7.976476 -3.181773 -8.403830
C -11.199209 4.093091 4.357579
C -8.298793 4.565743 4.675364
C -8.026602 3.017231 2.895946
C -8.832157 3.894776 3.565094
C -6.148370 1.248920 -4.140260
C -10.275630 4.200512 3.118826
C -10.750534 3.202325 2.062254
C -6.461179 1.885182 -5.348172
C -3.429964 3.602261 -2.845194
C -5.560924 4.134407 7.282314
C -6.336552 3.007315 0.488037
C -5.817962 3.004010 -5.768763
C -6.851182 -0.036824 -3.771754
C -6.131321 2.766032 -0.790156
C -6.133500 3.673324 -7.054623
I 4.757359 -6.014871 -1.790391
I -0.362862 -1.515925 -3.885718
N 2.753894 -1.031705 0.359916
N 4.495951 -1.719198 -1.666040
N 3.599135 1.572835 0.115295
N 5.177184 0.895258 -2.002250
N -2.977427 -2.031545 1.288172
N -3.298016 -0.481380 -0.914043
N -4.707302 -0.413623 2.638046
N 0.268737 -4.095676 4.349620
N 0.523672 -4.839358 -1.504417
N 2.880840 -5.979670 1.801767
H 6.018323 6.469569 -4.506354
N -0.703880 -7.062141 1.790126
H 4.501035 6.699284 -4.046393
N -5.053883 1.093573 0.407783
H 5.265749 7.831334 -4.879874
H 7.510128 8.579974 1.365293
H 6.479573 7.869344 2.362779
H 7.972576 8.183343 2.845286
H -4.839184 6.510885 6.421178
H 7.813319 7.793323 -3.623146
H -4.552934 5.484603 5.229141
H 6.994683 9.110467 -4.018097
H -5.644288 6.639789 5.045120
H 7.528358 8.918762 -2.522164
H 0.283795 1.974423 5.733639
H 5.186294 9.161698 -1.610433
H 4.762768 9.465782 -3.121453
H -6.630194 6.471222 7.781903
H 3.998054 8.333732 -2.287972
H -7.665513 6.669537 6.578468
H 9.417213 7.317367 0.469902
H -7.871279 5.473035 7.621452
H 9.824511 7.016588 1.989257
H 9.656372 5.810171 0.951277
H 8.245505 5.914286 3.474200
H 6.751497 5.601940 2.991455
H -5.866817 -6.581227 4.778328
H -10.011580 6.264643 3.215657
H -11.233293 5.844876 2.271008
H -6.487543 -5.594608 2.763750
H -6.514443 -3.994865 2.795311
H -3.309386 -4.822832 7.320327
Ni 4.003353 -0.071694 -0.802153
Ni -4.010270 -0.453947 0.861536
H 0.415581 -1.405199 2.552102
H 9.170753 -2.545512 -6.095166
H -5.499877 -1.544020 5.553234
H 6.716206 4.200512 0.890498
H -0.636365 -2.400080 -0.966539
H -2.225873 -2.828111 6.862786
H -1.876753 -2.628143 5.313914
H 3.901501 4.688037 0.940467
H -3.065182 -1.788608 5.980972
H 6.795072 3.395683 -3.230811
H 3.154808 -4.246065 -0.088874
H 5.088172 5.134246 -2.675665
H 5.920225 -3.689129 -3.792306
H 2.015880 3.580777 2.083487
H 3.032019 1.009289 3.656630
H 2.791866 2.118202 4.785317
H 2.482420 0.577954 5.095804
H 6.950086 1.382783 -4.663388
H -6.151949 0.815932 5.251019
H -2.265172 -4.713758 2.891309
H -3.070264 0.255691 -4.050233
H -1.913084 2.539622 6.301564
H 5.640563 -2.016671 -7.938904
H -2.455643 1.987644 2.810070
H -2.672537 3.336188 5.139662
H -3.034402 1.804203 5.425454
H -5.344030 -7.731455 6.723881
H -1.906164 1.541435 0.570929
H -9.729506 5.676308 1.753327
H -3.842121 -7.510003 7.227965
H -5.054530 -6.789458 7.984147
H -0.432266 2.014086 0.165446
H -0.745876 0.457312 0.371434
H 8.954181 -2.459575 -3.411737
H 9.430366 -1.016832 -3.913018
H -5.327021 -4.760032 2.043043
H 3.986376 -0.530959 -5.140106
H 4.087472 -0.221918 -6.706795
H 3.612867 -1.664661 -6.203175
H 8.908251 -3.446193 -8.250840
C 6.836477 7.028157 -0.700812
C 7.079353 6.140696 0.355453
H 8.151630 -1.150694 -2.960600
H -4.330156 4.302975 -5.245189