13
H8 C4 O1
H -1.507151 -0.582881 -0.919943
H -0.728029 1.464121 0.912468
H -1.306973 0.979729 -1.239826
C 0.231645 -0.371184 1.182643
H 1.831102 0.439723 0.183446
C -0.939981 0.208291 -0.738570
H -1.762279 0.251348 1.175659
H 1.678025 -1.142622 -0.051210
C -0.912506 0.507896 0.737406
O 0.408272 -0.044669 -1.131664
C 1.179544 -0.292247 0.040074
H -0.070583 -1.302292 1.332503
H 0.643775 -0.026728 2.014096