121
Zn1 H43 C65 N6 O2 F4
N -2.167056 -3.809779 -0.503344
C 2.931580 0.937974 -0.099212
N -0.024569 -1.922985 -0.180608
H 2.866032 -3.340816 -0.094487
C 2.297489 3.372489 1.303344
N -5.513944 -4.831665 -1.317413
C 0.542208 0.467935 -0.121577
O -5.531607 -6.004969 -1.162178
C 5.193585 -0.653341 -1.691514
H -6.736596 -2.594495 -2.310944
H -1.278818 -6.735144 0.499612
C -0.992878 2.385766 -0.244925
C -4.648275 -0.403969 -1.339858
C 2.618754 2.708693 2.473958
C 4.797155 3.648771 -1.936998
C 0.853856 -0.900919 -0.144544
C 3.780568 2.785837 -1.527803
C 2.854257 4.631906 1.069245
H -3.714310 -6.544975 0.087057
H 0.613055 -6.428363 -1.633880
H 1.988784 -4.908809 1.857139
C 3.468527 3.266640 3.412542
C 5.962894 3.659536 -1.228060
C -6.320541 2.025163 -0.576801
C 3.978783 4.511706 3.142754
H 3.393951 -6.751290 2.090633
C 3.696179 5.207794 1.999248
C -5.818135 4.061401 -2.389713
H -1.451520 -2.799016 2.933388
C -0.558572 7.403701 0.724265
H -2.731086 -3.584806 2.351656
C -6.962287 4.079341 -1.644172
C 0.032148 5.589925 -0.652781
C -7.225265 3.080060 -0.739069
C -0.607635 5.202412 1.591186
H 2.100648 -8.220610 -1.421926
H 3.460677 -8.396427 0.451824
C -0.154292 6.956985 -0.467615
C -3.245267 -0.789689 3.836283
H -4.136252 -2.659080 3.856484
C -0.784262 6.574854 1.772015
H -2.789961 -2.596289 4.739738
C -2.895938 -0.459585 2.401824
H 7.269935 -2.093957 1.049376
N -1.857174 0.287634 -0.593716
N -3.983961 -1.593958 -1.038569
C 6.159147 2.897068 -0.104516
H -6.055601 -6.989898 -0.952592
N 1.585682 1.364059 0.068577
C 6.732204 -1.731561 0.355293
H -6.742484 -7.054483 -2.396233
Zn -2.054407 -1.746631 -0.308093
C 6.518288 -1.006768 -1.942009
H -7.643282 -6.846374 -1.088774
C 2.135973 -2.734430 -0.105708
H -6.571744 -0.118717 -2.242390
C -3.294330 -4.530266 -0.520625
H -2.829212 3.354548 -0.553574
O -2.612549 -1.672537 1.738580
H 5.258348 1.521038 1.087763
C 7.252272 -1.519864 -0.905831
H -4.091114 3.017269 -2.734714
H 5.022845 -1.568303 1.431054
H 4.661741 -0.285563 -2.388908
H 2.245874 1.851141 2.638737
H 4.679404 4.215689 -2.689446
F -0.738928 8.739904 0.913156
H 2.962196 2.758927 -2.008559
H 2.652117 5.096563 0.264426
C -4.551130 -4.004612 -1.067551
C -4.807436 -2.598083 -1.370917
H -6.510906 1.327281 0.038212
C -6.014388 -2.084987 -1.964537
H 4.071021 6.067140 1.849904
C -1.151254 -4.686348 -0.100761
H -5.651321 4.752107 -3.018064
H -7.582444 4.789782 -1.753222
C -1.740011 -5.961912 0.194857
H 0.316714 5.259821 -1.497962
C 1.152749 -5.504431 0.108709
H -8.022049 3.105177 -0.224292
H -0.776412 4.604996 2.312193
C 0.760637 -3.055564 -0.129043
C 0.193075 -4.368802 -0.053375
H 0.002710 7.565165 -1.178457
F 4.802847 5.087593 4.059527
H -2.579971 -0.398587 4.458046
H -4.142140 -0.443438 4.068890
H -1.059015 6.922898 2.612860
H 3.692254 2.805572 4.211719
H -3.655434 -0.000310 1.962386
H -2.108966 0.137831 2.369821
C -3.062752 -5.865033 -0.038914
F 8.555781 -1.821442 -1.132358
C 1.186112 -6.487566 -0.878149
C 1.990746 -5.592339 1.197445
F 6.972809 4.460217 -1.642599
H 6.973594 2.950889 0.382582
H 6.899018 -0.895537 -2.803461
C -2.852566 1.228609 -0.744162
C 2.197008 -1.356606 -0.098622
C 2.834632 -6.677734 1.325996
C -2.411194 -2.716490 2.702197
C -5.146952 2.001841 -1.315859
C 4.642116 -0.834540 -0.423957
C 2.063360 -7.555021 -0.745913
C -5.920186 -0.735867 -1.932451
C 2.873882 -7.655487 0.357092
C -4.179428 0.882359 -1.134563
C 0.069436 3.255876 0.157907
C 3.253042 -0.389617 -0.163727
C -3.217791 -2.289508 3.901755
C -2.342506 2.538259 -0.521285
C -0.197467 4.710844 0.387135
C 5.144522 2.050280 0.305938
C -4.893787 3.024445 -2.225486
C 3.957784 1.969548 -0.420548
C -6.781734 -6.640059 -1.508841
C -0.744423 0.991795 -0.293905
C 1.309751 2.721252 0.411446
C 5.409463 -1.403251 0.580467