135
Zn1 Si2 H68 C58 N4 O2
C 7.429130 1.734293 6.568412
C -5.925800 5.502536 1.949886
H -2.175859 -2.350256 0.719906
H -6.142274 4.559496 2.041877
H 2.410582 2.450141 -2.312706
H -0.350161 -3.761388 0.880544
H 1.201127 4.381268 -2.066671
H -1.211267 3.071980 -2.257520
H -0.337237 3.521466 -3.571190
H 0.620234 1.486537 -3.791964
H -0.684674 0.962626 -2.959888
H -3.083508 -0.918558 -4.632550
Si -4.350506 5.858110 2.880049
H 4.207813 -3.014203 0.017824
H 4.580997 -4.392040 -4.692347
H -0.003033 -4.269631 -2.917338
H -2.279150 -3.245311 -3.368183
C 1.735179 2.404801 -1.612357
C 0.765754 3.567982 -1.750963
C -0.307326 3.037118 -2.712144
C 0.087999 1.583778 -2.947863
C -2.828979 0.361450 -1.166105
C -2.751819 -0.802123 -1.954707
H -3.678417 5.641593 5.141720
C -3.955057 -1.134488 -2.779443
C -3.920337 -1.124793 -4.167256
H -4.601036 8.185744 3.131463
H -3.736187 7.927216 1.808253
H -3.085191 7.795994 3.270338
C -1.645146 -1.672403 -2.016391
C 0.325210 -2.572355 -1.637962
C 1.628964 -2.799448 -1.143188
Si 4.350506 -5.858110 -2.880049
C 2.324056 -1.984791 -0.225506
C -3.653534 2.260750 -0.267460
C -3.962884 1.265711 -1.128945
C 2.355368 -3.926690 -1.663551
C 3.043445 -4.812246 -2.114144
C -0.365662 -3.451154 -2.549319
C -1.580977 -2.896494 -2.782044
N -1.844182 0.834732 -0.332891
N -0.467382 -1.507003 -1.325012
O 0.944970 1.227225 -1.844910
Zn 0.000000 0.000000 0.000000
H 2.175859 2.350256 -0.719906
H -2.410582 -2.450141 2.312706
H 0.350161 3.761388 -0.880544
H -1.201127 -4.381268 2.066671
H 1.211267 -3.071980 2.257520
C -4.495669 5.351434 4.661955
H 0.337237 -3.521466 3.571190
H -0.620234 -1.486537 3.791964
C -3.891386 7.658112 2.762286
H 0.684674 -0.962626 2.959888
H 3.083508 0.918558 4.632550
H 3.678417 -5.641593 -5.141720
H 4.601036 -8.185744 -3.131463
H 3.736187 -7.927216 -1.808253
H 3.085191 -7.795994 -3.270338
H -4.207813 3.014203 -0.017824
H -4.580997 4.392040 4.692347
H 0.003033 4.269631 2.917338
H 2.279150 3.245311 3.368183
C -1.735179 -2.404801 1.612357
C -0.765754 -3.567982 1.750963
C 0.307326 -3.037118 2.712144
C -0.087999 -1.583778 2.947863
C 2.828979 -0.361450 1.166105
C 2.751819 0.802123 1.954707
C 3.955057 1.134488 2.779443
C 3.920337 1.124793 4.167256
C 4.495669 -5.351434 -4.661955
C 3.891386 -7.658112 -2.762286
C 1.645146 1.672403 2.016391
C -0.325210 2.572355 1.637962
C -1.628964 2.799448 1.143188
C -2.324056 1.984791 0.225506
C 3.653534 -2.260750 0.267460
C 3.962884 -1.265711 1.128945
H 6.142274 -4.559496 -2.041877
C -2.355368 3.926690 1.663551
C -3.043445 4.812246 2.114144
C 0.365662 3.451154 2.549319
C 1.580977 2.896494 2.782044
N 1.844182 -0.834732 0.332891
N 0.467382 1.507003 1.325012
O -0.944970 -1.227225 1.844910
H -5.036739 -1.380775 -5.886948
H -7.119249 -1.909583 -2.450437
H -5.220378 -1.420925 -1.195219
H 5.287310 -5.762043 -5.052378
H -8.705134 -3.716342 -5.340864
H 5.036739 1.380775 5.886948
H -7.960170 -3.709487 -3.912206
H 7.119249 1.909583 2.450437
H -7.155224 -4.063004 -5.280738
H 5.220378 1.420925 1.195219
H -9.542063 -1.428760 -5.072475
H 6.629780 -6.041136 -2.350337
H -8.914064 -1.430718 -3.572641
H 5.835017 -5.758126 -1.010763
H -8.546198 -0.245798 -4.586674
H 7.155224 4.063004 5.280738
H -8.279782 -1.955609 -7.032063
H 8.705134 3.716342 5.340864
H -7.232372 -0.778522 -6.724823
H 7.960170 3.709487 3.912206
H -6.742169 -2.289541 -6.974234
H 8.546198 0.245798 4.586674
H 8.279782 1.955609 7.032063
H 9.542063 1.428760 5.072475
H 7.232372 0.778522 6.724823
H -4.761125 1.162397 -1.654636
H 6.742169 2.289541 6.974234
H 8.914064 1.430718 3.572641
H 4.761125 -1.162397 1.654636
H -5.287310 5.762043 5.052378
C -8.739897 -1.205583 -4.518064
H -6.629780 6.041136 2.350337
H -5.835017 5.758126 1.010763
C -5.066831 -1.393408 -4.914632
C -6.279405 -1.689736 -4.302793
C -6.297849 -1.712063 -2.909715
C -5.165667 -1.441098 -2.160881
C 5.066831 1.393408 4.914632
C -7.561240 -2.023570 -5.078253
C 6.279405 1.689736 4.302793
C -7.875380 -3.515884 -4.885967
C 5.925800 -5.502536 -1.949886
C 5.165667 1.441098 2.160881
C 6.297849 1.712063 2.909715
C 7.561240 2.023570 5.078253
C -7.429130 -1.734293 -6.568412
C 7.875380 3.515884 4.885967
C 8.739897 1.205583 4.518064