155
Fe2 H56 C88 N9
C -0.695792 2.911333 2.641193
C 0.695792 2.911333 -2.641193
Fe -1.360447 -0.034402 0.962193
Fe 1.360447 -0.034402 -0.962193
C -0.382777 4.209904 3.300026
H -1.380568 -5.124564 0.962117
H 1.380568 -5.124564 -0.962117
C 0.382777 4.209904 -3.300026
H 0.123003 -4.546521 2.819441
C 0.927294 4.527275 3.674176
H -0.123003 -4.546521 -2.819441
C -0.927294 4.527275 -3.674176
H -0.609506 -3.629753 5.292213
C -1.228743 5.769330 -4.210889
C 1.228743 5.769330 4.210889
H 0.609506 -3.629753 -5.292213
C 0.238846 6.711319 4.390176
H -0.616850 -4.702998 -6.956048
C -0.238846 6.711319 -4.390176
C -1.071226 6.406834 4.053722
C 1.071226 6.406834 -4.053722
H -2.880468 -4.279591 -7.223224
C -1.380201 5.159992 3.526221
C 1.380201 5.159992 -3.526221
H -3.934253 -2.751644 -5.795299
C -1.280881 2.959196 1.369119
C 1.280881 2.959196 -1.369119
H 2.722584 -1.650785 4.154898
H -2.722584 -1.650785 -4.154898
C -1.502653 4.171245 0.630977
H 0.818795 -0.060248 5.600892
C 1.502653 4.171245 -0.630977
H -0.818795 -0.060248 -5.600892
C -2.236631 3.860133 -0.451857
H 0.299246 2.327400 5.205160
C 2.236631 3.860133 0.451857
H -0.299246 2.327400 -5.205160
C -2.467215 2.439510 -0.393985
C 2.467215 2.439510 0.393985
H 1.617395 3.884801 3.559013
H -1.617395 3.884801 -3.559013
C -3.317036 1.736471 -1.258447
C 3.317036 1.736471 1.258447
H 2.124093 5.972382 4.456978
H -2.124093 5.972382 -4.456978
C -4.123163 2.521062 -2.248593
C 4.123163 2.521062 2.248593
H 0.453458 7.566601 4.743384
H -0.453458 7.566601 -4.743384
C -5.002174 3.504287 -1.797460
H -1.756920 7.051149 4.183509
C 5.002174 3.504287 1.797460
H 1.756920 7.051149 -4.183509
C -5.729726 4.258872 -2.695592
H -2.281977 4.950682 3.317271
H 2.281977 4.950682 -3.317271
C 5.729726 4.258872 2.695592
C -5.618840 4.044039 -4.047963
C 5.618840 4.044039 4.047963
H -1.187803 5.035363 0.864921
H 1.187803 5.035363 -0.864921
H -2.542669 4.459162 -1.121933
C -4.765715 3.071675 -4.510227
H 2.542669 4.459162 1.121933
C 4.765715 3.071675 4.510227
C -4.013929 2.317459 -3.614651
H -5.101861 3.656529 -0.864734
C 4.013929 2.317459 3.614651
H 5.101861 3.656529 0.864734
C -3.495115 0.358557 -1.180938
C 3.495115 0.358557 1.180938
H -6.315366 4.935955 -2.374499
H 6.315366 4.935955 2.374499
C -4.469407 -0.369519 -1.944462
C 4.469407 -0.369519 1.944462
H -6.128108 4.564093 -4.658896
H 6.128108 4.564093 4.658896
C -4.311522 -1.669010 -1.659461
C 4.311522 -1.669010 1.659461
H -4.688792 2.912806 -5.443206
H 4.688792 2.912806 5.443206
C -3.243051 -1.769523 -0.702072
C 3.243051 -1.769523 0.702072
H -3.418375 1.655471 -3.945013
H 3.418375 1.655471 3.945013
C -2.747368 -2.970527 -0.202175
H -5.107369 0.002343 -2.542080
C 2.747368 -2.970527 0.202175
H 5.107369 0.002343 2.542080
H -4.811795 -2.390827 -2.022335
C -3.329520 -4.241116 -0.723762
C 3.329520 -4.241116 0.723762
H 4.811795 -2.390827 2.022335
C -3.142813 -4.621446 -2.056381
H -2.616104 -4.082614 -2.633070
C 3.142813 -4.621446 2.056381
H 2.616104 -4.082614 2.633070
C -3.726800 -5.784342 -2.534386
H -3.603798 -6.032127 -3.442860
C 3.726800 -5.784342 2.534386
H 3.603798 -6.032127 3.442860
C -4.480605 -6.582556 -1.707877
H -4.868707 -7.383348 -2.040595
C 4.480605 -6.582556 1.707877
H 4.868707 -7.383348 2.040595
C -4.670066 -6.216217 -0.398162
H -5.188147 -6.766646 0.179346
C 4.670066 -6.216217 0.398162
H 5.188147 -6.766646 -0.179346
C -4.109027 -5.050744 0.081806
H -4.261036 -4.798724 0.985357
C 4.109027 -5.050744 -0.081806
H 4.261036 -4.798724 -0.985357
C 2.386805 -3.836302 6.544100
N 0.000000 -0.037973 0.000000
N -1.277577 -1.958768 1.502534
N 1.277577 -1.958768 -1.502534
N -0.530564 0.453731 2.721222
N 0.530564 0.453731 -2.721222
N -1.828335 1.890738 0.704038
N 1.828335 1.890738 -0.704038
N -2.770316 -0.505009 -0.391680
N 2.770316 -0.505009 0.391680
C -1.775646 -3.037535 0.798480
C 1.775646 -3.037535 -0.798480
C -1.209099 -4.251057 1.292524
C 1.209099 -4.251057 -1.292524
C -0.393609 -3.939024 2.302559
C 0.393609 -3.939024 -2.302559
C -0.443177 -2.509381 2.463617
C 0.443177 -2.509381 -2.463617
C 0.162290 -1.792351 3.495445
C -0.162290 -1.792351 -3.495445
H 0.616850 -4.702998 6.956048
C 0.934637 -2.524108 4.545597
C -0.934637 -2.524108 -4.545597
H 2.880468 -4.279591 7.223224
C 0.317237 -3.441797 5.392654
C -0.317237 -3.441797 -5.392654
H 3.934253 -2.751644 5.795299
C 1.050848 -4.082430 6.381202
C -1.050848 -4.082430 -6.381202
C -2.386805 -3.836302 -6.544100
C 3.005674 -2.928370 5.699387
C -3.005674 -2.928370 -5.699387
C 2.284363 -2.277796 4.719142
C -2.284363 -2.277796 -4.719142
C 0.028089 -0.414621 3.633268
C -0.028089 -0.414621 -3.633268
C 0.429959 0.309589 4.816268
C -0.429959 0.309589 -4.816268
C 0.151275 1.609633 4.599282
C -0.151275 1.609633 -4.599282
C -0.409397 1.708305 3.287180
C 0.409397 1.708305 -3.287180