155
Fe2 H56 C88 N9
C 3.186424 -0.638074 5.606538
C -3.186424 0.638074 5.606538
C 1.858617 3.614335 -2.504991
Fe 1.671469 0.158005 0.001798
Fe -1.671469 -0.158005 0.001798
C -1.858617 -3.614335 -2.504991
C 1.947636 2.210372 -2.256540
C -1.947636 -2.210372 -2.256540
H 2.376735 -0.945480 -4.935288
H -2.376735 0.945480 -4.935288
C 1.593647 1.480001 4.030008
C -1.593647 -1.480001 4.030008
C 2.089857 1.249885 -3.269917
C -2.089857 -1.249885 -3.269917
H -2.482792 3.124086 -3.840600
H 2.482792 -3.124086 -3.840600
C 1.429170 2.663853 3.417163
C -1.429170 -2.663853 3.417163
C 2.227732 1.708618 -4.671780
C -2.227732 -1.708618 -4.671780
H 4.683923 -4.117090 -2.045734
H -4.683923 4.117090 -2.045734
C 3.442527 2.206620 -5.140071
C -3.442527 -2.206620 -5.140071
H 5.137711 -6.280689 -2.715797
H -5.137711 6.280689 -2.715797
C 3.586835 2.580810 -6.460622
C -3.586835 -2.580810 -6.460622
H 3.529460 -7.916520 -2.545646
H -3.529459 7.916520 -2.545646
C 2.540168 2.466252 -7.346009
H 1.491762 -7.393754 -1.625627
C -2.540168 -2.466252 -7.346009
H -1.491762 7.393754 -1.625627
C 1.328329 1.977754 -6.897293
H 0.964951 -5.227654 -1.083553
C -1.328329 -1.977754 -6.897293
H -0.964951 5.227654 -1.083553
H 3.322560 -4.554813 1.144971
C 1.182804 1.601563 -5.575236
H -3.322560 4.554813 1.144971
C -1.182804 -1.601563 -5.575236
N 0.000000 0.000000 -0.041568
N 2.104810 -0.710861 -1.760091
N -2.104810 0.710861 -1.760091
N 1.836188 1.948239 -0.902561
N -1.836188 -1.948239 -0.902561
N 1.801415 1.086302 1.771368
N -1.801415 -1.086302 1.771368
N 2.262331 -1.536030 0.917300
N -2.262331 1.536030 0.917300
H -0.685028 4.652362 1.879782
H 0.685028 -4.652362 1.879782
H -1.058838 6.883495 2.378189
H 1.058838 -6.883495 2.378189
H 0.665903 8.379255 2.396258
H -0.665903 -8.379254 2.396258
H 2.774885 7.663891 1.909897
H -2.774885 -7.663891 1.909897
H 3.169559 5.477781 1.315122
H -3.169559 -5.477781 1.315122
H 1.566524 5.135107 -1.163359
H -1.566524 -5.135107 -1.163359
H 3.289526 -3.426740 3.295197
H -3.289526 3.426740 3.295197
H 1.919470 4.032047 -3.333159
H -1.919470 -4.032047 -3.333159
H 1.067531 -2.833939 4.563047
H -1.067531 2.833939 4.563047
H 4.162328 2.288662 -4.557342
H -4.162328 -2.288662 -4.557342
H 1.260521 -3.576816 6.741881
H -1.260521 3.576816 6.741881
H 4.404000 2.913980 -6.755751
H -4.404000 -2.913980 -6.755751
H 2.618407 -2.446242 8.237101
H -2.618407 2.446242 8.237101
H 2.646225 2.713878 -8.235913
H -2.646225 -2.713878 -8.235913
H 3.828507 -0.612811 7.544451
H -3.828507 0.612811 7.544451
H 0.610266 1.900965 -7.484539
H -0.610266 -1.900965 -7.484539
H 3.691154 0.090046 5.324961
H -3.691154 -0.090046 5.324961
H 0.363378 1.268144 -5.286130
H -0.363378 -1.268144 -5.286130
H 1.538705 1.325673 4.945510
H -1.538705 -1.325673 4.945510
C 2.131585 -0.115058 -3.007915
C -2.131585 0.115058 -3.007915
H 1.269215 3.484269 3.825224
H -1.269214 -3.484269 3.825224
C 2.314665 -1.104561 -4.019785
C -2.314665 1.104561 -4.019785
C 2.381429 -2.298667 -3.426516
C -2.381429 2.298667 -3.426516
C 2.264939 -2.044038 -2.008090
C -2.264939 2.044038 -2.008090
C 2.488530 -3.036792 -1.042898
C -2.488530 3.036792 -1.042898
C 2.777320 -4.434502 -1.482580
C -2.777320 4.434502 -1.482580
C 4.024453 -4.769422 -1.977975
C -4.024453 4.769422 -1.977975
C 4.297943 -6.070082 -2.373990
C -4.297943 6.070082 -2.373990
C 3.348640 -7.048329 -2.267081
C -3.348640 7.048329 -2.267081
C 2.128108 -6.725165 -1.744582
C -2.128108 6.725165 -1.744582
C 1.818628 -5.432508 -1.389223
C -1.818628 5.432508 -1.389223
C 2.571637 -2.745644 0.318309
C -2.571637 2.745644 0.318309
C 3.046984 -3.681619 1.303076
C -3.046984 3.681619 1.303076
C 3.020035 -3.067808 2.480580
C -3.020035 3.067808 2.480580
C 2.496875 -1.739383 2.263751
C -2.496875 1.739383 2.263751
C 1.865571 0.504006 3.031689
C -1.865571 -0.504006 3.031689
C 1.549311 2.412975 2.001749
C -1.549311 -2.412975 2.001749
C 1.489501 3.425990 1.035051
C -1.489501 -3.425990 1.035051
C 1.267476 4.833204 1.485273
C -1.267476 -4.833204 1.485273
C 0.019125 5.258420 1.848161
C -0.019125 -5.258420 1.848161
C 2.228080 -0.822918 3.277128
C -2.228080 0.822918 3.277128
C -0.199945 6.597600 2.168888
C 0.199945 -6.597600 2.168888
C 2.359348 -1.280150 4.703082
C -2.359348 1.280150 4.703082
C 0.820643 7.488302 2.182440
C -0.820643 -7.488302 2.182440
C 1.632071 -2.387712 5.153304
C -1.632071 2.387712 5.153304
C 2.067255 7.062336 1.879782
C -2.067255 -7.062336 1.879782
C 1.738650 -2.830187 6.463316
C -1.738650 2.830187 6.463316
C 2.305450 5.750420 1.525929
C -2.305450 -5.750420 1.525929
C 2.559293 -2.157596 7.356231
C -2.559293 2.157596 7.356231
C 1.653804 3.181615 -0.308087
C -1.653804 -3.181615 -0.308087
C 3.280659 -1.066792 6.945159
C -3.280659 1.066792 6.945159
C 1.668582 4.223144 -1.310923
C -1.668582 -4.223144 -1.310923