12
H4 C6 Cl2
H -0.422527 -2.614561 0.126137
C -0.224766 -0.568183 0.273039
C -0.087707 -1.843610 -0.315754
C 0.533325 -1.955489 -1.533994
C 1.006591 -0.844831 -2.156573
C 0.865130 0.357365 -1.564184
C 0.263163 0.495689 -0.392535
Cl 0.118711 2.077462 0.304585
Cl -0.997853 -0.452642 1.816848
H 0.630221 -2.807808 -1.941847
H 1.435961 -0.916027 -3.000222
H 1.207869 1.130351 -2.000230