15
H8 C7
C -0.348812 -1.549371 -0.275036
H -2.254522 1.024902 -0.831159
C -1.486895 -0.896430 -0.707475
C 1.976839 1.143618 0.918952
H -2.225230 -1.369734 -1.074645
H -0.312467 -2.495978 -0.349975
C 0.718612 -0.902678 0.246778
C -0.368021 1.123311 -0.064680
H 1.824419 2.112094 0.904913
C -1.496559 0.514109 -0.575203
H 2.120379 0.849951 1.842897
H 2.768858 0.931178 0.381623
H 1.459645 -1.407223 0.558759
C 0.751503 0.423509 0.335291
H -0.362338 2.069919 0.013878