51
Ti1 C44 N4 Cl2
Ti -0.000000 -0.000000 -0.000000
C 2.542377 1.794619 -0.000000
C -1.794619 2.542377 -0.000000
C -2.542377 -1.794619 -0.000000
C 1.794619 -2.542377 -0.000000
C 3.901937 1.930575 -0.000000
C -1.930575 3.901937 -0.000000
C -3.901937 -1.930575 -0.000000
C 1.930575 -3.901937 -0.000000
C 4.391379 0.530228 -0.000000
C -0.530228 4.391379 -0.000000
C -4.391379 -0.530228 -0.000000
C 0.530228 -4.391379 -0.000000
C 3.276540 -0.217530 -0.000000
C 0.217530 3.276540 -0.000000
C -3.276540 0.217530 -0.000000
C -0.217530 -3.276540 -0.000000
C 3.072606 -1.821810 -0.000000
C 1.821810 3.072606 -0.000000
C -3.072606 1.821810 -0.000000
C -1.821810 -3.072606 -0.000000
C 4.527335 -2.420017 -0.000000
C 2.420017 4.527335 -0.000000
C -4.527335 2.420017 -0.000000
C -2.420017 -4.527335 -0.000000
C 4.894416 -2.800694 1.243381
C 2.800694 4.894416 1.243381
C -4.894416 2.800694 1.243381
C -2.800694 -4.894416 1.243381
C -4.894416 2.800694 -1.243381
C -2.800694 -4.894416 -1.243381
C 4.894416 -2.800694 -1.243381
C 2.800694 4.894416 -1.243381
C 6.131616 -3.602834 1.223644
C 3.602834 6.131616 1.223644
C -6.131616 3.602834 1.223644
C -3.602834 -6.131616 1.223644
C -6.131616 3.602834 -1.223644
C -3.602834 -6.131616 -1.223644
C 6.131616 -3.602834 -1.223644
C 3.602834 6.131616 -1.223644
C 6.267572 -3.806768 -0.000000
C 3.806768 6.267572 0.000000
C -6.267572 3.806768 -0.000000
C -3.806768 -6.267572 -0.000000
N 2.025744 0.557420 -0.000000
N -0.557420 2.025744 -0.000000
N -2.025744 -0.557420 -0.000000
N 0.557420 -2.025744 -0.000000
Cl -0.000000 -0.000000 2.275584
Cl -0.000000 -0.000000 -2.275584