15
H8 C7
H 1.258086 0.221449 -2.206684
H 1.900611 0.147558 1.699047
H 2.684115 0.398800 -0.455485
C -0.016093 -0.039004 1.206036
C -0.395044 -0.017306 -1.125589
H -2.551060 -0.362362 1.326733
H -2.875596 0.408683 0.000939
H -2.659611 -1.143763 -0.027966
C 0.932942 0.160222 -1.336736
C 1.308830 0.122744 0.983325
C 1.778350 0.250959 -0.303590
H -0.964504 -0.074668 -1.860038
H -0.326386 -0.103033 2.080552
C -0.929287 -0.113961 0.147342
C -2.383096 -0.321077 0.382460