12
H6 C6
C 1.105339 -0.436721 0.719623
H 1.862254 -0.734078 1.212041
C 0.860164 -0.942839 -0.550467
C -0.245187 -0.506122 -1.271326
H 1.448442 -1.586793 -0.927418
H -0.413656 -0.852669 -2.139536
C -1.105363 0.436712 -0.719608
C -0.860188 0.942830 0.550483
H -1.861943 0.734170 -1.212220
C 0.245163 0.506113 1.271341
H 0.413934 0.852795 2.139366
H -1.448156 1.586902 0.927219