238
Ni1 B1 H95 Ru1 C121 S3 Br4 N12
Ni -3.347509 -7.859206 -6.584136
H 4.054354 6.150075 -0.467874
H -0.067772 4.960648 -0.600339
H -0.921209 3.129688 -1.768546
H 0.846747 0.658920 0.894045
H 1.628449 2.488747 2.059496
H -1.525350 -0.674538 -4.440273
H -2.188439 -2.580993 -5.612743
H -1.590187 -4.820487 -2.318595
H -0.990024 -2.909851 -1.121157
H -4.574674 -3.503363 -4.348584
H -6.753597 -4.537518 -4.840277
H 0.410341 -5.195555 -4.421118
H -9.821604 -5.939853 -2.925925
H 5.461273 -0.571216 8.198537
H 7.026884 -0.354821 7.951021
H 0.144597 1.243613 7.558377
H 4.500341 -3.038970 5.415815
H -0.845471 3.533684 2.988023
H -8.189921 -9.272645 -6.818206
H -2.841610 1.534233 3.880329
H -7.026784 -10.910180 -8.262626
H 3.998051 1.104778 7.304622
H -2.077777 -11.401114 -9.964440
H -3.233361 0.080745 5.644584
H 0.091057 -10.657883 -9.038890
H 5.213774 4.238305 3.348738
H 1.551775 -7.155533 -5.409284
H 2.073941 4.107696 9.394340
H 2.317779 7.925345 10.726509
H 2.582898 6.194999 12.269161
H -7.674129 -6.609638 -3.521262
H 2.896855 4.715613 11.744888
H 2.063742 7.849343 5.761849
H 0.064677 7.174159 12.724736
H -11.007381 -6.345221 -6.776648
H 2.245771 8.765348 8.573327
H -8.845260 -6.986230 -7.370311
H -0.434263 6.756959 11.258961
H -5.117164 -10.504389 -11.175404
H -2.117976 5.426310 12.272073
H -5.634407 -14.458656 -11.553456
H -2.289414 6.984492 12.594154
H -4.394714 -12.936935 -8.063694
H -2.873568 -0.669748 7.806784
H -1.790123 0.054643 8.736720
H -1.666732 6.003690 13.694777
H -2.587562 -3.232361 6.576005
H 0.169914 -3.279148 5.728487
H -0.859522 -4.497215 5.595766
H -0.294984 -4.079761 7.033837
H -1.871910 -2.181905 5.558302
H 3.562617 -3.285140 7.380224
H 2.661191 -2.205789 6.616361
H -2.900889 -15.843590 -10.027756
H 3.709515 -1.729971 7.727955
H -3.079686 -16.500798 -8.579576
H -2.741018 -14.942582 -8.714866
H 4.339848 -1.450726 5.459903
H -5.132394 -16.341092 -7.358879
H -6.294523 -15.321781 -7.773046
C 0.917666 11.087022 3.959534
H -4.919405 -14.766051 -7.172009
H -4.650630 -17.000585 -10.466711
H -5.836924 -15.989755 -10.830030
Ru 2.012770 5.180851 3.650314
H -5.991062 -16.992680 -9.592518
C 0.764903 6.181576 2.197757
H -4.369425 -10.826510 -13.551919
C 1.768249 7.100712 2.678343
H -4.845878 -11.665616 -14.828617
C 3.073972 6.560741 2.368077
H -3.854122 -12.327123 -13.760944
C 2.852568 5.325070 1.655944
H -7.746030 -11.572026 -12.749451
C 1.460031 5.079628 1.559342
H -7.118733 -11.005005 -14.108158
C -0.696091 6.469335 2.061237
H -6.662798 -10.395041 -12.700609
C -1.602058 6.272982 3.101509
H -5.517936 -14.188197 -13.762863
C -2.934360 6.603058 2.944100
H -6.595520 -13.391138 -14.637277
C -3.365322 7.151493 1.753224
H -6.996350 -13.957651 -13.195255
C -2.494261 7.356310 0.720814
C -1.170510 7.014385 0.902247
C 1.479911 8.458258 3.185852
C 2.246514 9.543279 2.747049
C 1.972727 10.839888 3.128892
C 0.126834 10.062938 4.395408
C 0.410179 8.740939 4.026488
C 4.367964 7.229358 2.693514
C 4.809795 7.322456 4.007144
C 5.970615 8.024927 4.324782
C 6.698675 8.597060 3.330975
C 6.316888 8.490420 2.011453
C 5.150011 7.803183 1.695507
C 3.872918 4.602286 0.818645
C 4.290040 3.283673 1.025243
C 5.195437 2.696306 0.161837
C 5.698291 3.395391 -0.885154
C 5.280380 4.683536 -1.140460
C 4.359707 5.269210 -0.287553
C 0.877882 3.913357 0.825083
C 0.119325 4.080935 -0.291951
C -0.386660 2.990835 -0.996514
C -0.110591 1.699305 -0.563933
C 0.650339 1.533420 0.580434
C 1.123306 2.621827 1.266939
C -0.564745 0.541498 -1.304330
C -0.849470 -0.440269 -1.918020
C -1.208858 -1.613310 -2.652150
C -1.550980 -1.516826 -4.002301
C 6.161471 -0.519826 7.500055
C -1.929969 -2.650936 -4.700914
C 6.633763 2.024303 4.737860
C 1.304876 -9.335410 -7.045653
C -1.934121 -3.898456 -4.071274
C 1.629499 -10.454285 -6.316432
C -1.586857 -3.976320 -2.753239
C -1.224940 -2.837133 -2.038401
C 2.885680 -11.011184 -6.361401
C -2.368215 -5.112122 -4.842169
C 3.864224 -10.427202 -7.156591
C -3.701294 -5.289856 -5.090272
C 3.546447 -9.293093 -7.871616
C -4.713384 -4.365641 -4.720834
C 2.280652 -8.768356 -7.818190
C -5.899018 -4.925925 -4.989351
C 5.171989 -11.012876 -7.236575
C 0.003007 -5.897535 -4.913955
C -1.398151 -6.032951 -5.217620
C -5.633873 -6.230997 -5.551102
C 4.544539 -2.248073 6.008614
C -6.617287 -7.141670 -5.897961
C -10.609637 -6.051571 -4.797585
C -6.309490 -8.294399 -6.601580
C -7.266302 -9.264317 -7.040501
C -6.637107 -10.164834 -7.822242
C -11.934037 -5.596235 -4.460356
C -5.271941 -9.772127 -7.853643
S 6.242287 -2.094037 6.637092
C -4.305677 -10.403504 -8.614755
C -2.972825 -10.068350 -8.557829
C -1.948278 -10.767435 -9.269958
C -0.770573 -10.361187 -8.770589
C -1.061190 -9.396347 -7.759563
C -0.078265 -8.795439 -6.974007
C -0.374764 -7.732423 -6.146204
C 0.623604 -6.957166 -5.462025
Br 6.993057 2.631475 -2.042068
C -8.020767 -6.833599 -5.524575
C -1.588560 0.527956 6.754068
C -8.344100 -6.537376 -4.190669
C -1.921250 -0.409800 7.872768
C -9.622452 -6.144670 -3.830717
C -0.482999 3.243048 3.816466
C -1.078708 2.279901 4.648202
C -10.324097 -6.381648 -6.117943
C -2.235350 1.482639 4.610187
C -9.035490 -6.765891 -6.465552
C -2.456575 0.627825 5.660459
C -4.707824 -11.546077 -9.490871
C -5.096178 -11.380193 -10.807176
C -0.446554 1.299828 6.817301
C -5.458039 -12.461828 -11.603064
C -0.189451 2.169876 5.749068
C -5.400140 -13.707656 -11.019846
C 4.789170 3.762707 4.054521
C -5.022188 -13.936170 -9.713459
C 5.388736 2.735238 4.783218
C -4.670159 -12.818988 -8.964981
C 4.647541 1.337067 6.649956
C 2.246922 7.322456 9.994527
C 4.420368 2.371307 5.743734
C 2.185448 5.958140 10.255903
C 2.104579 5.042389 9.224034
C 2.053188 7.031312 6.243211
C 2.112753 6.916208 7.653750
C 2.252045 5.463871 11.688439
C 2.208229 7.828574 8.727032
C -0.368309 6.455794 12.199055
C -1.725757 6.195118 12.735915
C -1.739303 -2.782966 6.334969
C -0.577820 -3.744420 6.157713
C 2.067408 5.551891 7.912731
N 6.211304 -11.452979 -7.292738
Br 0.520976 12.851663 4.487752
C 3.541580 -2.376718 7.011617
S 0.654252 4.912051 12.290627
S -0.877185 -1.919689 7.831857
Br -5.179935 7.665567 1.577590
C 6.821099 1.001912 5.609840
Br 8.275443 9.568331 3.748158
N 0.652341 3.694999 4.339173
C -4.741511 -15.368195 -9.155607
N 0.842019 3.033153 5.541585
C -3.226285 -15.693194 -9.115103
N 3.562080 3.989529 4.466354
C -5.325368 -15.457908 -7.736702
N 3.325212 3.146564 5.533737
C -5.361800 -16.436289 -10.098383
N 1.976971 5.824416 5.693753
C -5.819588 -12.243470 -13.083719
N 1.998173 4.891738 6.708944
C -4.612831 -11.718733 -13.879087
C 5.849716 0.659987 6.563993
C -6.936981 -11.212615 -13.167972
C -6.273332 -13.565469 -13.727797
H 2.512485 11.554766 2.813210
N -12.968963 -5.228919 -4.220421
H 2.111383 2.764014 7.395703
H 7.310381 2.264057 4.113507
H 7.630561 0.505494 5.573730
B 2.063033 3.388620 6.374735
H -1.301304 5.908425 3.926196
H -3.551100 6.453593 3.651736
H -2.792916 7.724930 -0.103011
N -4.271364 -6.425658 -5.665868
H 0.968164 -10.854169 -5.765309
N -5.048458 -8.643096 -7.054131
H 3.083498 -11.788760 -5.854700
N -2.420536 -9.169526 -7.659258
H 4.210139 -8.871272 -8.406664
N -1.635207 -7.167061 -5.970876
H 2.076711 -7.995181 -8.331139
H -0.561514 7.165424 0.188339
H -0.133243 8.032730 4.352025
H 2.982603 9.380222 2.169452
H 4.312715 6.899670 4.697560
H -0.619757 10.247849 4.954275
H 6.249381 8.103807 5.228275
H 6.844370 8.883126 1.326640
H 4.885180 7.725200 0.787666
H 3.951666 2.790927 1.763121
H 5.467577 1.797092 0.304477
H 5.619673 5.161995 -1.887777