105
Ni1 H42 C56 N6
C -2.138526 5.094635 -1.346813
C -2.369079 6.399069 -1.783170
C -1.495798 7.389655 -1.430334
C -0.416429 7.105230 -0.667251
C -0.190581 5.804064 -0.233958
C -1.701885 8.748033 -1.888280
C 2.766155 -1.123498 -8.393320
C 1.188978 0.548729 -7.486442
C 0.558484 -1.854177 -7.423256
C 5.556327 -3.323710 -3.281632
N -0.895417 -0.922438 2.153726
N -0.110593 -1.474943 -0.384747
N 0.017388 1.169888 -0.932306
H -4.145746 -6.467136 0.869435
N -0.680860 1.735470 1.622166
N -1.835512 9.817081 -2.265008
H -1.609174 2.988512 11.406645
C -1.150438 -6.805472 1.920218
Ni -0.422922 0.127321 0.614767
C -2.424601 -7.165090 1.642099
H -1.262722 -1.616273 5.272502
H 5.778798 -0.583400 -2.592139
C -3.263064 -6.221909 1.119868
H -1.667998 -3.556906 3.810974
H 7.139461 -1.388537 -2.839987
H -0.439372 -4.552379 -1.223124
H 6.671239 -0.268407 -3.882624
C -2.849008 -8.531641 1.835692
H 0.957305 -3.299305 -2.816169
H 1.430561 1.865407 -3.740866
H 6.418721 -3.781357 -3.369498
H 0.204081 3.792129 -2.786284
H -1.338231 4.847070 2.125934
H 6.341462 -1.453922 -5.910297
H -1.147671 3.567988 4.220912
H 7.289848 -2.500919 -5.158370
H 0.899064 1.968519 5.534670
H 5.951478 -3.005627 -5.876073
H 0.671032 2.684029 7.731926
H -3.067742 1.161633 7.818160
H -2.838976 0.484602 5.617165
H 0.184667 -5.298212 1.870031
H -3.451120 -4.280083 0.609231
H 3.629368 -1.357495 -2.375289
H 4.207051 -1.580066 -6.349373
H 0.614805 -0.433586 -4.913076
H -2.755140 4.409381 -1.576401
H -3.127037 6.597366 -2.320831
H 0.189937 7.795795 -0.427331
H 0.559011 5.614594 0.318632
H 3.284497 -1.923012 -8.165326
H 2.302864 -1.264174 -9.243912
H 3.369359 -0.354584 -8.471704
H 1.824272 1.201518 -7.121273
H 1.061139 0.719008 -8.442581
N -3.169901 -9.620305 2.012431
H 0.331836 0.632700 -7.020730
H 0.144475 -1.988282 -6.544788
H -0.105690 -1.496341 -8.046950
H 0.895545 -2.711132 -7.759043
H 4.842890 -3.904837 -3.619633
H 5.390442 -3.117419 -2.338535
C -0.938704 -0.508877 3.482757
C -1.221015 -1.623695 4.323487
C -1.417692 -2.686204 3.527276
C -1.184315 -2.279181 2.185308
C -1.141968 -3.129189 1.094482
C -0.566995 -2.746685 -0.111187
C -0.199991 -3.635924 -1.158153
C 0.541546 -2.949380 -2.036556
C 0.594244 -1.594271 -1.582793
C -1.395107 2.425284 9.380147
C 1.108990 -0.551377 -2.313162
C -1.512736 2.735864 10.496037
C 0.741986 0.761231 -2.038299
C 0.936781 1.872779 -2.929350
C 0.286525 2.928750 -2.398218
C -0.250807 2.513554 -1.152453
C -0.767436 3.378273 -0.204207
C -0.899181 3.015385 1.129223
C -1.144791 3.920970 2.203735
C -1.053511 3.221349 3.341205
C -0.790962 1.869510 2.995132
C -0.832367 0.813539 3.902131
C -0.941528 1.163350 5.345671
C 6.365618 -0.973112 -3.272889
C 0.083261 1.809028 5.995296
C -0.047543 2.232398 7.305171
C 6.360913 -2.272643 -5.371574
C -1.228544 1.997011 7.997526
C -2.257096 1.336620 7.354035
H -0.543968 -7.450873 2.266061
C -2.118764 0.931232 6.047156
C -1.575786 -4.549682 1.276539
C -0.725089 -5.519018 1.709431
C -2.845244 -4.925647 0.953785
C 1.989800 -0.842341 -3.481186
C 3.307251 -1.264076 -3.264233
C 4.150419 -1.548502 -4.334342
C 3.636614 -1.396481 -5.611848
C 2.329514 -0.989458 -5.874530
C 1.511754 -0.713206 -4.771972
C 5.582676 -2.048698 -4.077279
C 1.737603 -0.852149 -7.290355
C -1.050688 4.785690 -0.598884