20
H12 C6 N2
C 1.374725 0.258458 -0.720924
H -1.373934 -0.436775 -1.724635
H -2.137679 -0.827184 -0.409475
C 0.256026 1.319662 -0.831821
N -0.993053 0.832918 -0.191578
H -1.474725 0.244667 1.683824
N 0.984603 -0.825562 0.198968
H -0.570586 1.528455 1.661140
H -0.508329 -2.179927 0.212920
H 0.120167 -1.977117 -1.210984
H 2.186971 0.678681 -0.398296
H 1.262165 0.320721 1.827028
H 0.344622 -0.922505 2.101873
H 1.556229 -0.112279 -1.599331
H 0.543392 2.139927 -0.400326
H 0.086570 1.515272 -1.767361
C -1.292318 -0.506237 -0.761367
C -0.711386 0.660326 1.252227
C -0.165770 -1.517042 -0.407132
C 0.545651 -0.221390 1.462382