129
Mg1 H44 C72 N4 O8
H 9.941952 -2.812256 -6.551599
H 11.837332 -4.090659 -7.041023
C -2.184641 2.079428 0.681120
N 1.003944 -1.821667 -0.024512
C -2.712023 3.353208 0.226654
N -1.244302 -0.698152 1.497488
C -1.855426 3.834054 -0.690258
C -0.787877 2.863115 -0.845515
O -0.495420 -7.642679 5.002514
C 11.496931 -4.929828 -3.911922
C 0.215747 2.919753 -1.844748
O -2.713621 -7.435776 5.209348
C 10.362260 -4.194689 -3.613154
C 1.179418 1.924540 -2.119027
C 2.274136 2.045908 -3.058573
C 3.002882 0.921236 -2.967682
C 2.376416 0.068197 -1.984579
O -7.917125 2.018166 5.195364
C 2.839873 -1.204427 -1.579919
C 0.278074 4.160012 -2.683139
C 0.511401 5.407207 -2.098188
C 0.209355 5.253475 -4.854499
C 0.121458 4.101062 -4.073449
C 0.608887 6.556151 -2.873650
C 0.455466 6.454434 -4.240102
C 1.708399 8.103875 -5.364005
O 8.069426 -2.811100 -3.105293
C 1.684427 9.496710 -5.904900
C 0.497018 10.127821 -6.171555
C 0.503410 11.445524 -6.603214
C -11.496931 4.929828 3.911922
C 1.657258 12.098596 -6.754949
C 4.201478 -1.597426 -2.049841
C -10.362260 4.194689 3.613154
C 2.876630 11.504474 -6.502012
C 4.410832 -2.756774 -2.797628
C 5.692531 -3.145149 -3.173088
C 2.897406 10.134756 -6.083956
C -6.761678 2.366086 2.807152
C -6.606660 1.200959 2.096273
C -5.312177 0.832234 1.711443
O -8.069426 2.811100 3.105293
C 8.510030 -2.663148 -4.368831
C 9.774149 -3.412158 -4.604772
N -1.003944 1.821667 0.024512
C 10.331896 -3.361299 -5.882490
N 1.244302 0.698152 -1.497488
C 11.458576 -4.114933 -6.170065
C 12.029107 -4.899775 -5.188369
O 0.495420 7.642679 -5.002514
O 7.917125 -2.018166 -5.195364
Mg 0.000000 -0.000000 0.000000
O 2.713621 7.435776 -5.209348
H 3.514283 -3.769325 -0.522481
H 1.935333 -4.660508 1.152803
H -0.779886 -7.398788 2.467671
H -2.445135 -2.783359 3.632694
H -3.787563 -0.721269 3.461687
H -0.602494 -5.470780 1.153307
H 0.326018 -9.666624 6.058950
H 0.316429 -11.885914 6.792802
H -9.941952 2.812256 6.551599
H -0.100682 -5.206084 5.795716
H -1.639679 -13.002494 7.048226
H -11.837332 4.090659 7.041023
H 0.046346 -3.264205 4.490503
H -3.683684 -11.993411 6.599996
H -3.718843 -9.680495 5.935810
H -3.666105 3.288479 3.054390
H -5.826774 3.939239 3.675148
H 7.356182 -0.661163 -1.872621
H 5.189121 -0.038144 -1.206421
H 12.794610 -5.424545 -5.390788
H 11.910846 -5.455754 -3.237576
H 9.988298 -4.222430 -2.740372
C 2.184641 -2.079428 -0.681120
C 2.712023 -3.353208 -0.226654
C 1.855426 -3.834054 0.690258
C 0.787877 -2.863115 0.845515
C -0.215747 -2.919753 1.844748
C -1.179418 -1.924540 2.119027
C -2.274136 -2.045908 3.058573
C -3.002882 -0.921236 2.967682
H -3.514283 3.769325 0.522481
C -2.376416 -0.068197 1.984579
H -1.935333 4.660508 -1.152803
C -2.839873 1.204427 1.579919
C -0.608887 -6.556151 2.873650
H 2.445135 2.783359 -3.632694
C -0.455466 -6.454434 4.240102
C -0.278074 -4.160012 2.683139
H 3.787563 0.721269 -3.461687
C -0.511401 -5.407207 2.098188
H 0.602494 5.470780 -1.153307
C -1.708399 -8.103875 5.364005
H 0.100682 5.206084 -5.795716
C -1.684427 -9.496710 5.904900
H -0.046346 3.264205 -4.490503
C -0.209355 -5.253475 4.854499
C -0.497018 -10.127821 6.171555
C -0.121458 -4.101062 4.073449
H -12.794610 5.424545 5.390788
H 0.779886 7.398788 -2.467671
C -0.503410 -11.445524 6.603214
H -11.910846 5.455754 3.237576
C -1.657258 -12.098596 6.754949
H -9.988298 4.222430 2.740372
C -2.876630 -11.504474 6.502012
C -8.510030 2.663148 4.368831
C -2.897406 -10.134756 6.083956
H -0.326018 9.666624 -6.058950
C -9.774149 3.412158 4.604772
H -0.316429 11.885914 -6.792802
C -10.331896 3.361299 5.882490
H 3.666105 -3.288479 -3.054390
H 1.639679 13.002494 -7.048226
C -11.458576 4.114933 6.170065
H 5.826774 -3.939239 -3.675148
H 3.683684 11.993411 -6.599996
C -12.029107 4.899775 5.188369
H -7.356182 0.661163 1.872621
C -4.201478 1.597426 2.049841
H 3.718843 9.680495 -5.935810
H -5.189121 0.038144 1.206421
C -4.410832 2.756774 2.797628
C -5.692531 3.145149 3.173088
C 6.761678 -2.366086 -2.807152
C 6.606660 -1.200959 -2.096273
C 5.312177 -0.832234 -1.711443