53
H36 C16 N1
C -0.221433 1.148808 1.890598
H 1.317666 4.550282 -1.453286
C 0.581295 1.636445 3.030529
H 0.175172 5.493892 -0.848842
C -0.172286 2.212341 4.124454
H -0.017491 4.827331 -2.290931
H 1.226680 1.367075 0.495460
H 1.253628 -0.058236 1.212466
H -0.774881 1.888780 1.534561
H -0.831801 0.431056 2.198609
H 1.117828 0.879836 3.382758
N -0.024847 0.030113 -0.340703
H -1.384840 -1.445153 -0.661775
H 1.219750 2.317371 2.695502
H -1.712697 -0.557809 0.626194
H -0.353007 3.158003 3.936417
H 0.457904 -2.419698 0.591101
H 0.339977 2.137011 4.955428
H -0.109682 -1.665516 1.887019
H -1.024005 1.733531 4.222064
H -1.390999 -3.671490 0.400994
H -2.188952 -2.766383 1.452619
H -0.007129 -4.430482 2.106009
H -1.539471 -4.753976 2.435158
H -0.807711 -3.527405 3.156995
H 1.441663 -1.304511 -0.853059
H 1.699716 0.163981 -1.435881
C -0.983205 -1.002529 0.127027
H 0.371431 -0.160661 -3.207912
C -0.360682 -2.066062 1.016480
H -0.527174 -1.249790 -2.454867
C -1.302658 -3.147247 1.236287
H 2.159900 -1.854371 -3.233675
C -0.876721 -4.038673 2.325101
H 0.928016 -2.132235 -4.223882
C 1.007232 -0.523719 -1.276162
H 1.451050 -3.417875 -1.738014
C 0.401091 -0.942954 -2.602675
H 1.136438 -4.119696 -3.141433
H 0.047964 3.398357 0.165519
C 1.195627 -2.057236 -3.272320
H -0.040615 -3.414697 -2.317666
H -1.547810 1.372812 -0.359182
C 0.908939 -3.370104 -2.554112
C -0.876721 1.040690 -1.002681
H -1.353836 0.619005 -1.758461
C -0.000273 2.280743 -1.549644
H 0.961304 2.065521 -1.485670
C 0.655015 0.625868 0.819676
H -0.218492 2.443097 -2.503224
C -0.295153 3.509763 -0.757315
C 0.351944 4.696860 -1.391178
H -1.273301 3.648927 -0.707577