61
H30 C28 N3
C -2.516450 1.131025 -3.263885
H 3.110160 2.613070 2.419587
C -1.862400 0.895160 -4.613861
H 0.711087 4.095116 2.927357
H -2.738026 -3.487832 -2.411128
C -2.873285 1.017735 -5.766530
H 1.037667 2.756075 3.742444
C 0.930883 -0.332449 0.999162
C 0.563369 -4.087707 0.932503
H 3.092362 3.792392 4.483081
C -0.439507 -4.492577 1.972804
H 1.785152 4.533415 5.035381
C -0.392345 -5.996909 2.260926
H 2.595818 5.153720 3.801437
C 2.265679 3.004939 2.085841
C 1.444334 3.521241 3.264756
C 2.306612 4.321694 4.233338
H -0.146742 4.923427 -1.562349
H -1.398781 3.324378 -2.701164
H -2.908880 -1.316765 -3.132855
H -1.261742 -4.187996 -0.813168
N 0.395185 -2.653949 0.589764
H 1.999609 -2.967816 2.656945
N -1.608788 0.780014 -2.159422
H 2.969561 -1.279621 3.936098
N 1.528871 1.989051 1.317629
H 2.783580 0.949019 3.389349
C -0.124496 4.020828 -1.261178
H 1.129323 4.384839 0.331131
C -0.874651 3.068084 -1.951597
H -2.774510 2.083768 -3.188422
C -0.848845 1.751329 -1.540304
H -3.339574 0.585008 -3.199278
C -1.537599 -0.562742 -1.793647
H -1.460181 -0.009296 -4.625074
C -2.311781 -1.543343 -2.428909
H -1.135381 1.554466 -4.742896
C -1.317803 -3.268682 -1.042949
H -3.629669 0.416003 -5.601753
C -0.508917 -2.302938 -0.398098
H -2.438142 0.774442 -6.610363
C 1.059913 -1.721635 1.345286
H -3.196306 1.942621 -5.820397
C 1.860791 -2.055931 2.427471
H 1.479929 -4.241855 1.272461
H 0.440568 -4.639296 0.119898
C 2.461449 -1.038185 3.170275
C -2.180081 -2.835955 -2.001812
H -1.347168 -4.249284 1.661967
C 2.355555 0.291570 2.853218
C -0.637057 -0.954611 -0.747465
C 1.614298 0.666725 1.741658
H -0.259755 -3.996705 2.807873
C 0.113988 0.027848 -0.063527
C 0.736003 2.388349 0.261328
H -0.541842 -6.492781 1.428984
C 0.660364 3.705104 -0.140062
H -1.089998 -6.227202 2.908138
C -0.017712 1.389175 -0.461471
H 0.485951 -6.230916 2.626940
H 2.495264 3.760820 1.488958