20
H14 C6
C -0.285835 -1.800573 -2.581535
C -0.321723 -0.545326 -1.951695
C -0.092145 -0.689970 -0.366280
C 0.285835 1.800573 2.581535
H -0.895791 -2.414064 -2.121477
C 0.321723 0.545326 1.951695
H -0.563532 -1.704143 -3.515840
C 0.092145 0.689970 0.366280
H 0.625326 -2.158027 -2.544643
H -1.197165 -0.116381 -2.120932
H -0.383570 -0.034914 2.335706
H 0.711847 -1.246934 -0.208999
H -0.866895 -1.162142 0.026864
H 0.895791 2.414064 2.121477
H 0.563532 1.704143 3.515840
H 0.383570 0.034914 -2.335706
H -0.625326 2.158027 2.544643
H 1.197165 0.116381 2.120932
H -0.711847 1.246934 0.208999
H 0.866895 1.162142 -0.026864