134
Zn2 H16 C76 N8 O2 F30
F -1.082715 5.589589 -1.191932
Zn -1.825690 -1.793091 -0.961881
F 2.956748 -7.428401 1.497371
H 0.548317 -3.085746 1.660254
F 4.511115 -8.131672 -0.588070
H -3.009513 3.097384 -1.940137
F 4.151739 -6.966204 -2.991934
H -6.791177 -0.591878 -1.664887
F 2.228755 -5.193896 -3.340781
H -6.812405 -3.020905 -1.251297
H -3.112458 -6.746744 -0.638269
H -0.640074 -6.753394 -0.789416
H -3.092803 3.123985 1.493780
H -3.123476 0.636768 1.450965
Zn 1.825690 1.793091 0.961881
H -0.548317 3.085746 -1.660254
H 3.009513 -3.097384 1.940137
H 6.791177 0.591878 1.664887
H 6.812405 3.020905 1.251297
H 3.112458 6.746744 0.638269
H 0.640074 6.753394 0.789416
H 3.092803 -3.123985 -1.493780
H 3.123476 -0.636768 -1.450965
C -0.600866 -0.538675 1.343465
C -0.719918 0.980921 -1.539854
C -1.119138 2.325947 -1.669390
C -2.456663 2.335923 -1.809895
C -2.880768 0.979259 -1.725250
C -4.206022 0.542001 -1.699605
C -4.663280 -0.719897 -1.506322
C -6.032128 -1.145517 -1.524801
C -6.044345 -2.463941 -1.310034
C -4.689329 -2.879586 -1.180496
C -4.263004 -4.193023 -0.967500
C -2.967989 -4.643582 -0.928982
C -2.552825 -5.991933 -0.772028
C -1.201236 -5.988608 -0.852316
C -0.767934 -4.676834 -1.040568
C 0.519013 -4.261189 -1.226482
C -0.987433 2.964378 1.416451
C -2.334586 2.552058 1.464599
C -2.356097 1.197057 1.459015
C 0.600866 0.538675 -1.343465
C -1.024329 0.798038 1.465603
C 0.719918 -0.980921 1.539854
C 1.119138 -2.325947 1.669390
C -5.255667 1.582775 -1.884398
C 2.456663 -2.335923 1.809895
C -5.807932 2.259444 -0.821518
C 2.880768 -0.979259 1.725250
C -6.777600 3.185501 -0.961081
C 4.206022 -0.542001 1.699605
C -7.257605 3.464814 -2.213373
C 4.663280 0.719897 1.506322
C -6.761171 2.829709 -3.296829
C 6.032128 1.145517 1.524801
C -5.728435 1.923603 -3.114303
C 6.044345 2.463941 1.310034
C -5.339963 -5.223822 -0.884045
C 4.689329 2.879586 1.180496
C -5.654001 -5.829001 0.300318
C 4.263004 4.193023 0.967500
C -6.628263 -6.779996 0.406300
C 2.967989 4.643582 0.928982
C -7.321888 -7.134125 -0.703660
C 2.552825 5.991933 0.772028
C -7.055300 -6.565523 -1.890630
C 1.201236 5.988608 0.852316
C -6.067629 -5.627829 -1.974534
C 0.767934 4.676834 1.040568
C -1.576971 5.305288 1.086724
C -0.519013 4.261189 1.226482
C -1.809676 5.912129 -0.114731
C -2.789549 6.873100 -0.296069
C 0.987433 -2.964378 -1.416451
C -3.576388 7.212266 0.764278
C 2.334586 -2.552058 -1.464599
C -3.373894 6.633689 1.958233
C 2.356097 -1.197057 -1.459015
C -2.393543 5.707632 2.107158
C 1.024329 -0.798038 -1.465603
C 5.255667 -1.582775 1.884398
C 5.807932 -2.259444 0.821518
C 6.777600 -3.185501 0.961081
C 7.257605 -3.464814 2.213373
C 6.761171 -2.829709 3.296829
C 5.728435 -1.923603 3.114303
C 5.339963 5.223822 0.884045
C 5.654001 5.829001 -0.300318
C 6.628263 6.779996 -0.406300
C 7.321888 7.134125 0.703660
C 7.055300 6.565523 1.890630
C 6.067629 5.627829 1.974534
C 1.576971 -5.305288 -1.086724
C 1.809676 -5.912129 0.114731
C 2.789549 -6.873100 0.296069
C 3.576388 -7.212266 -0.764278
C 3.373894 -6.633689 -1.958233
C 2.393543 -5.707632 -2.107158
N -1.819959 0.159608 -1.592204
N -3.838120 -1.812211 -1.298248
N -1.853354 -3.833906 -1.083897
N 0.188219 -1.872063 -1.476342
O -1.517688 -1.434805 1.085262
F -5.391689 1.978469 0.427395
F -7.275901 3.822268 0.100109
F -8.243858 4.352631 -2.349584
F -7.240809 3.077433 -4.506817
N 1.819959 -0.159608 1.592204
F -5.244428 1.341701 -4.217482
N 3.838120 1.812211 1.298248
F -4.992919 -5.494822 1.411737
N 1.853354 3.833906 1.083897
F -6.899783 -7.331972 1.578501
N -0.188219 1.872063 1.476342
F -8.255609 -8.096758 -0.626339
F -7.725690 -6.921315 -2.981907
F -5.820680 -5.097466 -3.164015
F 1.082715 -5.589589 1.191932
F -2.956748 7.428401 -1.497371
F -4.511115 8.131672 0.588070
F -4.151739 6.966204 2.991934
F -2.228755 5.193896 3.340781
O 1.517688 1.434805 -1.085262
F 5.391689 -1.978469 -0.427395
F 7.275901 -3.822268 -0.100109
F 8.243858 -4.352631 2.349584
F 7.240809 -3.077433 4.506817
F 5.244428 -1.341701 4.217482
F 4.992919 5.494822 -1.411737
F 6.899783 7.331972 -1.578501
F 8.255609 8.096758 0.626339
F 7.725690 6.921315 2.981907
F 5.820680 5.097466 3.164015