67
H8 Pt1 C38 N4 O1 F15
H -0.598432 -5.759008 -0.779326
C 1.355604 3.889575 2.363664
C 0.466869 -2.467351 -2.978167
C -0.398111 -3.405114 3.490816
H -0.868968 -5.256985 1.636153
F 1.876558 -3.206529 3.892092
C 1.355604 5.065640 3.104875
H 0.033912 -1.023881 4.516754
N -0.077020 -2.740957 -0.113003
H 0.096836 1.391178 4.016028
F -0.575858 -5.766069 6.757256
N 0.036017 -0.408687 1.417981
H 0.134130 4.211548 -0.377999
F -2.793188 -5.291671 5.305505
N 0.139225 1.118211 -0.928335
H 0.072566 3.681944 -2.742896
C -1.616127 -3.947913 3.884425
C 1.283522 2.351645 -5.127679
N 0.271921 -1.242744 -2.431204
F 2.472051 3.430623 1.947053
C 0.154788 3.249690 2.074848
C 1.175399 3.024627 -6.339175
F 2.440924 5.656982 3.363021
O 0.464412 -4.733427 -2.965387
C 0.155608 5.604026 3.554714
F 2.390959 2.292069 -4.550045
C -1.044389 4.964141 3.268453
Pt 0.084754 -0.814241 -0.502011
C -1.044389 3.788076 2.527242
F 2.203383 3.578459 -6.835020
C 0.278474 -3.691959 -2.328968
F -2.678513 -3.687546 3.230114
C 0.162979 1.753683 -4.562825
C -0.081934 -3.775806 -0.976897
C -0.466916 -4.916566 -0.360925
C -0.622547 -4.645167 0.952807
C -0.049170 3.099648 -6.985818
F 0.163799 6.671972 4.249918
C -0.352241 -3.270517 1.103606
C -1.172989 2.503893 -6.420964
F -2.180494 5.480462 3.654394
C -0.311285 -2.586502 2.279320
C -1.065686 1.828704 -5.209467
F -2.137900 3.240864 2.246093
C -0.057361 -1.273635 2.465900
C 0.016359 -0.624924 3.654394
C 0.065505 0.683531 3.383468
F -0.155654 3.728501 -8.095079
C 0.728985 -1.041952 -4.636946
C 0.065505 0.818127 1.982835
F -2.314009 2.627457 -6.990930
C 0.745367 -2.343787 -4.314902
C 0.180181 2.003018 1.295298
F -2.121518 1.290318 -4.723846
C 0.163799 2.137614 -0.046549
C 0.131034 3.340157 -0.754534
C 0.748643 -3.661068 4.232027
C 0.098270 3.053312 -2.029928
F 1.722565 -4.698123 6.064607
C 0.106461 1.689695 -2.160279
C 0.679019 -4.462027 5.366847
C 0.229327 0.983615 -3.302766
C -0.540636 -5.004826 5.760455
C 0.344003 -0.349111 -3.433117
C -1.686571 -4.748872 5.019244
H 0.935253 -0.657315 -5.480572
H 0.914922 -3.061186 -4.913213