13
H8 C4 O1
H -0.610792 -1.560650 0.894393
C 0.162336 -0.851933 -0.901432
H 1.424466 0.721030 -1.232391
O 0.431853 1.016091 0.458408
C 1.112879 0.189374 -0.457805
H -1.545981 1.023335 0.203397
H 0.620631 -1.723150 -1.006130
H 1.899190 -0.226852 -0.024566
H -1.081975 0.506266 1.652411
C -0.868592 0.486290 0.685894
H -0.252304 -0.603152 -1.765461
H -1.759052 -1.176835 -0.174821
C -0.872308 -0.922145 0.184649