20
H14 C6
C 2.168788 -0.865483 2.456768
C 1.209945 -0.874711 1.182368
C 0.433984 0.260331 0.596979
C -0.428793 -0.054958 -0.610070
C -1.258803 1.061628 -1.250824
C -2.126598 0.518715 -2.370639
H 2.808318 -0.138472 2.373037
H 2.649358 -1.708906 2.505329
H 1.645028 -0.744766 3.260837
H 1.753754 -1.218546 0.446572
H 0.540841 -1.570578 1.370215
H 1.065012 0.963058 0.345331
H -0.147201 0.627097 1.299280
H -1.053179 -0.766452 -0.349359
H 0.154372 -0.424263 -1.301561
H -1.822149 1.481532 -0.570983
H -0.651943 1.747313 -1.608244
H -2.529153 -0.315434 -2.088121
H -1.577242 0.363884 -3.156496
H -2.818215 1.162105 -2.580420