134
V2 H46 C76 N8 O2
C 0.613425 -11.860447 -0.269652
C -6.109213 -4.442573 4.657594
C 4.926179 5.018613 5.073464
C -4.926179 -5.018613 5.073464
C 0.611339 -11.238215 0.979105
C -4.168787 4.736027 -4.007879
C 4.168787 -4.736027 -4.007879
C -0.419382 9.852458 1.090539
C -6.447223 3.420917 -3.081939
C -0.358875 11.102357 -1.392039
C -5.345562 4.744179 -4.745415
C -6.484780 4.083907 -4.275552
C -0.611339 11.238215 0.979105
H 2.508116 -8.473114 -1.281225
C -0.613425 11.860447 -0.269652
N -1.205985 2.729397 -0.760194
N 1.205985 -2.729397 -0.760194
N 1.024462 5.619651 0.911325
N -1.024462 -5.619651 0.911325
N 1.095402 2.789990 0.940045
V 0.174221 4.164606 -0.313306
V -0.174221 -4.164606 -0.313306
N -1.095402 -2.789990 0.940045
H -3.461470 -6.930930 2.537730
N -1.260234 5.550363 -0.816485
H 3.349635 1.617830 2.932449
N 1.260234 -5.550363 -0.816485
H -0.009973 -9.235905 -2.060945
H -3.349635 -1.617830 2.932449
H 1.974874 -0.161753 1.897682
O 1.112094 4.122490 -1.590783
O -1.112094 -4.122490 -1.590783
H -1.974874 0.161753 1.897682
H -2.022968 -0.285357 -1.541051
H -2.026473 -8.633699 1.419949
H 2.022968 0.285357 -1.541051
H -3.868960 6.717007 -2.302873
H 3.868960 -6.717007 -2.302873
H -2.508116 8.473114 -1.281225
H 2.987046 5.362308 4.568228
H -2.987046 -5.362308 4.568228
H -3.490952 1.416977 -2.598921
H 3.490952 -1.416977 -2.598921
H -5.247476 2.945467 -1.490561
H 0.425058 -9.433607 1.942991
C 5.266276 -3.404614 -2.321426
H 3.461470 6.930930 2.537730
H 0.009973 9.235905 -2.060945
H 0.315830 -11.517676 -2.245800
H 5.097959 3.261637 1.789292
H -5.097959 -3.261637 1.789292
H 2.026473 8.633699 1.419949
H 0.742662 -11.758227 1.762743
H -6.992775 -3.362063 3.159569
C 6.180154 3.771432 3.435261
H 0.787375 -12.790996 -0.345381
H -6.881107 -4.500557 5.208633
H 4.888435 5.461213 5.914082
C 6.109213 4.442573 4.657594
H -4.888435 -5.461213 5.914082
H -3.396685 5.184333 -4.332441
H 3.396685 -5.184333 -4.332441
H -5.377777 5.204984 -5.575913
H -0.425058 9.433607 1.942991
H -7.221766 2.969486 -2.765901
H -0.315830 11.517676 -2.245800
C 6.447223 -3.420917 -3.081939
H -7.286092 4.094232 -4.786623
C -0.865889 -6.993996 0.747045
C 5.345562 -4.744179 -4.745415
H -0.742662 11.758227 1.762743
C 6.484780 -4.083907 -4.275552
H -0.787375 12.790996 -0.345381
C -1.005683 1.361302 -0.661396
C 1.005683 -1.361302 -0.661396
C -2.315993 2.866614 -1.579295
C 2.315993 -2.866614 -1.579295
C -2.898121 4.097492 -1.944617
C 2.898121 -4.097492 -1.944617
C 2.142815 5.472380 1.701706
C -2.142815 -5.472380 1.701706
C 2.637311 1.741706 2.317468
C -2.637311 -1.741706 2.317468
C 0.932657 1.415646 0.881456
C -0.932657 -1.415646 0.881456
C 0.865889 6.993996 0.747045
C -0.014605 0.747222 0.134729
C 2.318079 -7.542864 -1.266819
C 0.014605 -0.747222 0.134729
C 2.151161 3.007907 1.811992
C -2.151161 -3.007907 1.811992
C -2.414057 5.328370 -1.549426
C 2.414057 -5.328370 -1.549426
C 1.888264 0.771676 1.751105
C 0.221167 -9.099802 -0.066312
C -1.888264 -0.771676 1.751105
C -1.959205 0.657555 -1.440289
C 1.959205 -0.657555 -1.440289
H 5.247476 -2.945467 -1.490561
C 1.174688 -6.923349 -0.640717
C 2.664435 4.246937 2.152040
C -2.664435 -4.246937 2.152040
C -4.127057 4.056735 -2.775206
C 4.127057 -4.056735 -2.775206
C -3.060866 6.591854 -1.819396
C 3.060866 -6.591854 -1.819396
C 0.160659 -7.597207 0.015253
C 3.868334 4.301280 3.035475
C 0.166918 -9.743772 -1.277158
C -3.868334 -4.301280 3.035475
C -2.318079 7.542864 -1.266819
H 6.992775 3.362063 3.159569
C 3.799480 4.961552 4.280785
H 6.881107 4.500557 5.208633
C -1.902870 -7.692308 1.403016
C -3.799480 -4.961552 4.280785
C -2.762500 1.586827 -2.013545
C 2.762500 -1.586827 -2.013545
C -0.221167 9.099802 -0.066312
C -1.174688 6.923349 -0.640717
H 5.377777 -5.204984 -5.575913
C -5.266276 3.404614 -2.321426
H 7.221766 -2.969486 -2.765901
C 2.691559 6.760319 2.009587
C 0.419382 -9.852458 1.090539
C -2.691559 -6.760319 2.009587
C -0.160659 7.597207 0.015253
C -0.166918 9.743772 -1.277158
C 0.358875 -11.102357 -1.392039
H 7.286092 -4.094232 -4.786623
C 5.055541 3.708937 2.626498
C -5.055541 -3.708937 2.626498
C 1.902870 7.692308 1.403016
C -6.180154 -3.771432 3.435261