262
Zn3 Sb1 H96 C147 N15
H -4.176302 8.931630 3.319409
H -2.968422 6.922717 3.390008
H 2.587756 -1.886630 7.071927
H 3.657337 -3.957229 6.886126
C -1.009079 -6.245507 -0.683689
H 4.258039 -4.758529 4.799421
C -0.499324 -6.803161 0.498975
H 3.759076 -3.547191 2.908087
C -1.278183 -7.517992 1.473411
H 2.726889 -1.475774 3.085809
C -0.430043 -7.944307 2.420656
H -1.631320 5.906021 -1.145500
C 0.878436 -7.474930 2.068050
H 0.670924 5.562385 -1.936695
C 2.034846 -7.688088 2.824247
H 2.852979 2.269511 -3.343450
C 3.291275 -7.100290 2.560555
H 4.994644 2.773553 -2.580018
C 4.470860 -7.334978 3.336550
H 5.704471 4.991661 -2.443563
C 5.457806 -6.581391 2.811655
H 4.323719 6.693519 -3.148552
C 4.890226 -5.885938 1.677258
H 2.173084 6.206939 -3.940251
C 5.595583 -5.035461 0.802471
H 2.880580 2.843184 -5.996822
H 1.974355 1.718574 -8.006021
H -0.393466 2.722417 -10.288716
H 0.497928 2.001578 -12.321399
H 1.142860 -0.216013 -12.573170
H 0.929931 -1.679458 -10.800481
C -4.378356 0.889887 -8.380222
H 0.044061 -0.960816 -8.795990
C -4.287664 1.492756 -7.073502
H -2.882389 0.439349 -9.719836
C -0.765629 -5.052686 -2.904315
C -5.373357 1.841559 -6.252853
C -0.256399 -5.547900 -1.642237
C -5.310183 2.640362 -5.111559
C 1.919479 -8.622536 3.973303
C -6.423508 3.101127 -4.334858
C 2.014231 -8.176843 5.283063
C -5.949727 3.852561 -3.332164
C 1.830139 -9.055310 6.340759
C -4.505096 3.854714 -3.442470
C 1.567492 -10.368705 6.107843
C 1.444353 -10.807938 4.842105
C -4.214139 5.105668 -1.333021
C 1.631975 -9.953155 3.757800
C -4.628012 4.250885 -0.324845
C -2.490427 -6.378999 -0.908174
C -5.073613 4.759018 0.890203
H -4.849967 -8.600682 -1.291733
H -4.025375 7.066459 -1.792996
H -6.197484 -6.693482 -1.197644
C -4.765078 6.957339 0.102413
C -4.294219 6.462125 -1.109991
C -5.136092 6.111169 1.094209
C -6.718162 1.378642 -6.722439
C -7.015248 0.037257 -6.786652
C -8.269523 -0.389058 -7.253065
C 0.346094 -3.778047 1.925665
C -9.207989 0.523859 -7.640786
C -0.530434 -2.748863 2.185155
C -8.932393 1.854478 -7.550120
C -0.358833 -1.551736 1.504646
C -7.691831 2.300171 -7.099950
C 0.683564 -1.407477 0.614112
C 1.519281 -2.509868 0.429414
C 8.085000 -5.227088 0.433853
C -0.581461 -0.014418 -1.949653
C -1.297541 -1.190014 -2.056671
C -2.267130 -1.306281 -3.031330
C -2.535392 -0.244800 -3.859161
C -0.881473 0.976011 -2.866099
C 0.170945 1.751129 2.071654
C -0.063722 1.699455 0.708183
C -0.948423 2.631749 0.191355
C -1.553666 3.546819 1.037015
C -1.264264 3.508064 2.366762
N -4.138545 3.115768 -4.551668
C 5.088795 -4.467041 -0.367100
C 5.820935 -3.605799 -1.261742
C 5.010529 -3.272067 -2.267175
C 3.759918 -3.922305 -2.035782
C 2.617308 -3.814650 -2.860485
C 1.384738 -4.445510 -2.623147
C 0.251634 -4.383070 -3.504068
H -5.217558 -4.599328 -1.078900
C 7.016298 -4.734026 1.176674
C 7.286402 -3.997664 2.310198
C 8.605080 -3.737138 2.715647
C 9.650167 -4.232353 1.944464
C 9.381587 -4.970868 0.825726
C 2.700926 -2.951254 -4.080010
C 1.909028 -1.807955 -4.166175
C 1.909495 -1.017765 -5.310996
C 2.698850 -1.338578 -6.353545
C 3.534969 -2.445275 -6.286520
C 3.555270 -3.231158 -5.137850
C -2.919658 0.982470 5.956430
C -1.746372 0.233189 5.727790
C -1.668933 -1.194320 5.699511
C -0.388624 -1.530205 5.453068
C 0.347260 -0.311547 5.348682
C 1.741126 -0.218963 5.194151
C 2.474526 0.969552 5.148753
H -4.514127 5.149979 5.971111
C 3.904116 1.062135 5.137813
H -5.074073 2.790433 6.333637
C 4.229030 2.360458 5.063172
C 2.998449 3.114045 4.997621
H -5.400487 -1.715630 8.634339
C 2.898560 4.498492 4.895207
H -7.189608 -1.782183 7.206688
C 4.155419 5.252079 4.575072
H -7.145011 -0.603099 5.228587
C 4.751027 5.107821 3.365318
H -5.241615 0.666502 4.651862
C 5.882994 5.852796 3.048529
C 6.438081 6.668823 3.907694
C 5.927558 6.737723 5.155023
H -4.487325 10.154831 5.230059
C 4.774059 6.025044 5.480982
C 1.709999 5.241314 4.997427
C 1.615278 6.683895 4.975480
H 10.549842 -4.055453 2.192831
C 0.325469 6.993942 5.115521
C -0.413262 5.777437 5.215527
C -1.808451 5.684854 5.392395
C -2.507651 4.498492 5.621036
C -3.911782 4.416674 5.915588
C -3.015898 2.356152 5.886331
C -2.588970 6.961646 5.374076
C -2.819402 7.702314 6.476747
C -3.532677 8.882216 6.415573
C -4.012554 9.332215 5.263081
C -3.821978 8.621690 4.145331
C -3.102928 7.422410 4.186751
H -5.176641 0.612868 -8.816055
C 2.492618 -1.510827 5.091243
H -7.338440 2.906486 -4.503807
C 2.810814 -2.227811 6.215105
H -6.465451 4.300320 -2.672967
C 3.459300 -3.450775 6.107715
H -4.608565 3.311442 -0.463649
C 3.810397 -3.924458 4.876276
C 3.522632 -3.207474 3.762390
H -5.334973 4.163835 1.582451
C 2.890425 -1.988816 3.867375
H -5.438541 6.453685 1.927204
C -2.249937 4.657822 -2.769038
H -4.826968 7.896761 0.236424
N 3.562732 -6.222253 1.548608
C -1.369079 5.385572 -1.895736
C -0.117769 5.204711 -2.327479
H -6.370111 -0.603206 -6.512859
C -3.297600 -5.242159 -0.924390
N 1.062211 -5.187255 -1.509511
C -4.671777 -5.375652 -1.056900
Zn 2.239747 -5.469527 0.166275
C -3.091273 -7.612729 -1.063250
C -0.188838 4.362847 -3.494945
C -4.457913 -7.741915 -1.184793
C 0.923207 3.859020 -4.209406
C -5.252375 -6.613688 -1.152883
C 2.282896 4.190598 -3.705163
C 3.139697 3.174332 -3.303459
H -7.510623 3.230464 -7.048166
C 4.411101 3.473614 -2.847733
C 4.023032 5.792509 -3.183602
C 2.740441 5.499687 -3.652783
C 4.837412 4.791315 -2.778330
C 0.840306 3.073136 -5.370583
N 0.802029 -6.768496 0.886138
C 1.964010 2.685577 -6.190292
C 1.471777 2.061176 -7.276540
C 0.034206 2.011655 -7.122511
C -0.847264 1.432469 -8.036223
C -0.267991 0.952327 -9.324224
C -0.124834 1.815722 -10.386873
C 0.402914 1.391560 -11.600001
H -2.217156 -7.662078 1.449521
C 0.786464 0.086778 -11.746876
H -0.654992 -8.462108 3.186144
C 0.656337 -0.774464 -10.703861
H 4.544581 -7.914594 4.085533
C 0.131756 -0.341690 -9.511607
H 6.351790 -6.519640 3.126109
C -2.241449 1.329120 -7.881294
C -3.129778 0.795150 -8.873443
H -1.642765 -5.173002 -3.248473
H 2.208363 -7.262289 5.456484
H 1.886644 -8.736047 7.234697
H 1.470985 -10.972500 6.835404
H 1.224111 -11.718336 4.684076
H 1.563047 -10.288200 2.871720
C -3.627161 4.528636 -2.585610
H -2.548904 -8.393187 -1.086453
H 10.100664 -5.313470 0.310594
H 7.919718 -5.743122 -0.345695
N 1.349903 -3.674052 1.058529
N -1.844649 0.904528 -3.786352
N -0.410299 2.621630 2.903200
N 3.821612 -4.641227 -0.868194
Zn -2.201104 2.628520 -5.083838
N -1.502721 4.050862 -3.758638
Zn -0.064815 2.719381 5.021924
N -0.313672 2.621199 -5.946069
Sb 1.031645 0.347950 -0.569532
N -2.959904 1.741009 -6.780706
H 0.229795 -4.600254 2.388102
H -1.234957 -2.856970 2.812445
N 1.932467 2.228903 5.094680
H -0.960312 -0.831565 1.653991
N -0.500604 0.765006 5.504462
H 2.247761 -2.425703 -0.175090
N -1.987062 3.228160 5.599159
H -1.123297 -1.912704 -1.464332
N 0.446790 4.712080 5.152353
H -2.748381 -2.119251 -3.129774
H -3.229602 -0.324293 -4.502397
H -0.359434 1.769430 -2.839365
H 0.785505 1.126857 2.440046
H -1.139973 2.642300 -0.738505
H -2.161884 4.191632 0.693206
H -1.684285 4.137696 2.939544
H 6.722162 -3.325421 -1.154184
H 5.224652 -2.707092 -3.000076
H 0.220573 -3.954150 -4.349896
H -2.907410 -4.379711 -0.847452
H 6.565344 -3.661069 2.829761
H 8.779826 -3.233505 3.501179
H 1.359307 -1.562889 -3.430995
H 1.351424 -0.251260 -5.357977
H 2.682609 -0.806287 -7.140219
C -4.219577 3.133423 6.100960
H 4.093004 -2.665817 -7.022413
H 4.157002 -3.964269 -5.076954
C -4.153460 0.194433 6.302065
H -2.391571 -1.796996 5.829910
C -4.202730 -0.483795 7.498344
H -0.041937 -2.411255 5.364690
C -5.366050 -1.233076 7.817974
H 4.512380 0.333180 5.175098
H -8.465212 -1.316875 -7.299056
H 5.108435 2.718843 5.056871
C -6.395350 -0.580685 5.811362
C -5.253602 0.172902 5.462682
H 4.394848 4.496641 2.730278
C -6.422447 -1.269679 6.977294
H 6.264103 5.765875 2.183473
H -10.050162 0.231230 -7.969505
H 7.183675 7.202772 3.657998
H 6.355135 7.271198 5.814802
H 4.419462 6.088992 6.359010
H 2.335373 7.294279 4.877035
H -0.036740 7.872173 5.146743
H -9.594680 2.487448 -7.799339
H -3.469384 -0.452855 8.100249
H -2.481254 7.406650 7.313729
H -3.683256 9.378615 7.212174