285
Zn3 H128 C132 N16 Cl4 O2
C -1.999959 4.274314 8.839523
H 4.538805 7.310381 -5.680056
H 0.283775 7.652900 -6.735379
H -0.240891 8.575132 -4.651637
H 0.175653 7.387980 -2.684214
H 2.510878 7.220139 -2.130844
H 3.909029 7.731937 -0.356063
C 1.908292 -4.265644 -8.854643
Zn -2.607870 -0.365590 5.545197
Zn -0.034050 -0.035435 -0.375397
Zn 2.550919 0.387656 -5.639039
H -1.435143 -0.280665 3.226846
H -2.385687 0.841153 3.253567
H 1.708908 -0.524012 3.225140
H 0.288664 -0.845921 2.775056
H -1.275936 0.445064 -2.610128
H 0.118364 0.809672 -2.830934
H 2.942833 -0.952643 -3.466567
H 2.017168 0.114071 -3.127090
H -0.287493 1.155973 4.908649
H -1.412815 3.063189 3.100624
H -1.865891 2.894050 4.628770
H 0.255826 3.556120 5.386535
H -0.280829 4.678022 4.375358
H 1.063845 3.867508 2.649480
H 2.006149 4.074602 3.925875
H 2.432850 2.000690 2.831300
H 2.024879 1.793414 4.365115
H 1.217443 0.319504 7.567605
H 0.271277 1.451300 2.139376
H -0.413675 -0.641116 -4.415915
H -1.297825 -2.283160 -2.214202
H -2.254587 -1.627439 -3.319009
H -1.862455 -3.952638 -3.757404
H -1.394585 -3.033909 -4.983442
H 0.262163 -4.612182 -4.544741
H 0.335675 -4.152462 -3.012128
H -4.155365 3.335365 7.374519
H 1.102672 -2.515720 -5.236998
H 2.129638 -3.199643 -4.213336
H 1.255546 -1.882605 -2.425626
H -6.563456 -1.254179 4.036995
H 2.476439 -4.246569 5.539771
H 1.150560 -5.039139 5.111044
H 2.390068 -4.684437 3.185358
H 2.522915 -3.121988 3.505089
H 1.104504 -3.736041 3.090090
H 3.225270 -2.573100 6.609942
H 2.793876 -1.281654 7.450903
H 3.142062 -1.143745 5.894974
H 1.395319 1.964786 9.059885
H 2.440954 3.992119 8.594514
H -7.760158 3.257780 6.455418
H -6.607399 4.112222 5.746743
H 1.077351 4.593739 8.011542
H -8.651007 1.509907 5.317904
H -8.312331 0.052435 4.747033
H -9.036157 1.389734 2.972008
H -7.485347 1.066318 2.744838
H -7.930038 2.495142 3.312144
H -2.269066 4.922681 8.155143
H 1.828402 3.413844 7.233800
H -6.465913 -4.887554 3.265951
H -6.793164 -3.387996 2.812810
H -7.186093 -3.883453 4.282938
H -3.265064 -6.186730 4.169239
H -4.784784 -6.125164 3.672432
H -5.512032 -5.991972 5.923519
H -3.991197 -6.064073 6.416551
H -1.202107 -5.521437 6.883170
H 0.579466 -5.117575 0.310010
H 2.908613 -4.269370 0.153408
H 5.102551 0.526668 -0.676728
H 4.227987 2.820163 -0.892316
H -0.542308 5.128952 -0.110334
H -2.863568 4.287668 0.074890
H -5.046220 -0.507658 0.819707
H -4.177884 -2.812721 1.039080
H -3.023803 -4.175556 -1.361222
H -4.218474 -6.173851 -1.398242
H -6.711423 3.846925 1.629719
H -7.793049 3.755009 -0.429523
H -6.870514 2.526260 -2.173530
C 0.420884 7.151666 -5.940298
C 0.132129 7.702856 -4.698963
C 0.376308 7.002356 -3.528798
H 6.904580 -2.325650 2.303874
H 7.863170 -3.609449 0.586555
H 6.793267 -3.900812 -1.417384
H -1.297686 -0.349194 -7.483811
H 4.136466 -3.277940 -7.493855
H 6.538638 1.293478 -4.125015
H -2.543129 4.181505 -5.406482
H -1.213300 4.996806 -5.044578
H -2.548566 4.578362 -3.089408
H -3.380309 2.449986 -6.200281
H -3.133378 0.876876 -6.040639
H -2.923431 1.579525 -7.463097
H -1.091247 3.934320 -2.938798
H -1.504200 -2.009128 -8.965446
H -2.505265 -4.069253 -8.517145
H -1.866897 -3.520212 -7.156190
H -1.117799 -4.664873 -7.986697
H -2.342397 3.006074 -3.305084
H 1.947469 -4.967623 -8.172228
H 7.651307 -3.238798 -6.715606
H 6.673851 -4.040019 -5.733879
H 8.285617 -0.080883 -4.769655
H 8.598973 -1.539863 -5.352029
H 6.551275 4.937012 -3.694559
H 7.163796 3.539696 -4.177774
H 6.592110 3.691308 -2.690721
H 3.185866 6.166431 -4.141489
H 4.719880 6.117731 -3.685396
H 8.938390 -1.546575 -3.012682
H 1.090696 5.467913 -6.842694
H 7.710357 -2.512846 -3.358188
H 7.436365 -1.048089 -2.774661
H 3.839394 6.057505 -6.388776
H 5.375098 5.972189 -5.946536
H 4.239998 6.210317 1.376424
H 3.109647 4.173984 1.332900
C -0.681738 -2.806037 5.478853
C -0.621026 1.355100 3.986962
C 0.781121 -3.066980 5.603398
C -1.101818 2.806334 4.005818
C 1.302997 -1.978554 6.232339
C 0.023641 3.738474 4.441929
C 0.213480 -1.056183 6.483452
C 1.258763 3.536138 3.562150
C 1.689597 2.083508 3.479510
C 0.356246 0.143877 7.208574
C -0.615946 1.094156 7.454345
C 0.559251 1.176486 3.057228
C -0.278440 -0.982226 -3.485100
C -0.438006 2.324915 8.223814
C -1.360020 -2.024603 -3.167207
C -1.628982 2.977971 8.180300
C -2.543133 2.172815 7.364781
C -1.204823 -3.267920 -4.039390
C -6.108607 2.140720 5.988395
C -6.638569 1.116483 5.272088
C -4.720748 1.777911 6.262302
C -3.835286 2.507715 7.033617
C 1.114149 -1.582255 -3.367936
C 1.226887 -2.801851 -4.296954
C 0.178771 -3.835856 -3.936179
C -5.598346 0.132713 5.101390
C -5.738330 -1.107813 4.484420
C -4.823415 -2.171122 4.434130
C -5.182059 -3.509328 4.074026
C -4.085596 -4.304716 4.337773
C -3.012606 -3.386531 4.765968
C -1.660564 -3.711663 5.017842
C 1.631091 -4.177733 5.028957
C -6.793839 3.409155 6.404320
C 2.740824 -1.721797 6.576237
C -8.032664 1.002059 4.735095
C -8.129904 1.535108 3.314047
C 0.824834 2.758890 8.904999
C 1.612403 3.778941 8.116273
C 1.938983 -3.905626 3.574294
C -6.522962 -3.955862 3.564643
C -4.159834 -5.814558 4.374881
C -4.620765 -6.346213 5.721222
C -1.236205 -5.115454 4.876280
C -1.018249 -5.895493 6.029629
C -0.956682 -5.722461 3.638682
C -0.029300 -3.064189 0.226535
C 0.844530 -4.207037 0.245940
C 2.115285 -3.746549 0.153517
C 2.033252 -2.316245 0.053919
C 3.128806 -1.451086 -0.106261
C 3.066499 -0.054273 -0.326206
C 4.194627 0.795537 -0.594846
C 3.715761 2.041645 -0.705461
C 2.295026 1.999783 -0.493732
C 1.459107 3.116117 -0.420310
C 0.033823 3.071464 -0.238694
C -0.816046 4.219893 -0.112869
C -2.076060 3.762196 -0.000920
C -2.005601 2.326311 -0.019486
C -3.102438 1.444406 0.141382
C -3.030167 0.068524 0.331346
C -4.147159 -0.785472 0.687233
C -3.678641 -2.041348 0.799591
C -2.255811 -1.988322 0.479996
C -1.405897 -3.120006 0.408484
C -2.101384 -4.441467 0.416324
C -2.933782 -4.781949 -0.634911
C -3.642544 -5.973636 -0.670423
C -3.493418 -6.863913 0.374794
C -2.664893 -6.582038 1.452750
C -1.972570 -5.362443 1.468254
C 4.502018 -2.041348 0.060689
C 5.222890 -1.875293 1.236211
C -6.323289 3.371479 0.904741
C -6.963791 3.308685 -0.309438
C 5.146960 -2.785106 -0.929997
C -4.473083 2.068158 0.019506
C -5.095540 2.729586 1.058385
C 6.456201 -2.444624 1.475011
C 6.392589 -3.379554 -0.731308
C -6.409984 2.603999 -1.346394
C -5.173858 2.006760 -1.175779
C 7.014816 -3.203731 0.449775
C 0.587504 2.781217 -5.410412
C -0.848107 3.042160 -5.524723
C -0.318873 1.027176 -6.418645
C -0.430629 -0.156138 -7.145961
C 0.544513 -1.084091 -7.443481
C 0.371504 -2.323222 -8.192119
C 1.560487 -2.949765 -8.203498
C 2.468918 -2.122282 -7.456710
C 3.808958 -2.458578 -7.142918
C 4.689499 -1.716216 -6.377964
C -1.387323 1.953734 -6.151894
H -4.657601 -7.324917 5.690377
C 5.551762 -0.093344 -5.176287
C 4.771314 2.154674 -4.470194
C 6.061168 -2.112514 -6.074744
H -0.427670 -7.692596 6.740905
H 0.097450 -8.619488 4.672634
H -0.213734 -7.380287 2.707694
C 2.962994 3.374269 -4.761780
C 1.596471 3.688239 -4.972158
C 5.703276 1.136019 -4.547277
C 6.597727 -1.091068 -5.351149
C 5.109004 3.530556 -4.106077
C 4.024836 4.292455 -4.351333
C -0.910004 -2.790687 -8.839401
C -1.677495 4.130586 -4.928757
C -2.832592 1.692791 -6.492914
C 6.474228 3.963136 -3.625470
H -3.968506 -7.686554 0.355531
H -2.569309 -7.203237 2.164623
C 1.156112 5.129705 -4.839340
C 8.019918 -1.583651 -3.353317
C 6.714130 -3.406067 -6.480284
C 7.979313 -1.022693 -4.778867
C 4.078852 5.805088 -4.371368
C 0.914083 5.862300 -5.996776
C 0.919095 5.729735 -3.613870
C 1.957288 5.373904 -1.454218
C 2.627734 6.594894 -1.425785
C 3.460435 6.894909 -0.372575
C 3.654556 6.001842 0.657888
C 2.982499 4.796200 0.626025
C 2.115456 4.468277 -0.424706
N -0.947550 -1.551556 5.965253
N -1.740731 0.413192 3.730886
N -1.900519 1.022990 6.945965
N 0.898071 -0.256608 3.012986
N -4.437923 0.555525 5.694975
N -0.421984 0.142481 -2.526722
N 2.152707 -0.571973 -3.709440
N -3.521918 -2.101351 4.840502
N 1.911655 0.678322 -0.321248
N -0.704136 1.923035 -0.158171
N -1.894396 -0.694770 0.228074
N 0.721011 -1.928319 0.081426
N 0.862796 1.521154 -5.910187
N 1.848959 -0.991994 -7.020969
N 4.404152 -0.510574 -5.806758
N 3.461609 2.103044 -4.860485
Cl 4.520016 -0.950131 2.546333
Cl 4.404583 -2.980046 -2.486971
Cl -4.364530 2.750378 2.643142
Cl -4.517325 1.105180 -2.522328
O -1.160181 -4.939631 2.502438
O 1.124688 4.958069 -2.483656
C -1.667972 -3.856787 -8.054143
C -1.938648 3.890574 -3.429677
C 4.493945 6.332556 -5.712440
H -0.697318 -3.151570 -9.737213
H 0.596691 3.143216 9.788193
H 1.224826 -4.492302 -9.518729
H -6.459388 3.687750 7.282671
H -1.228838 4.621913 9.333562
H -2.744959 4.124893 9.458290
H 2.780688 -4.190655 -9.296157
H 6.244934 -3.780751 -7.253742
C -0.546093 -7.180673 5.948936
C -0.244547 -7.734654 4.720383
C -0.435390 -7.004850 3.551899