317
Zn3 H144 C144 N20 Cl4 O2
N -1.937472 -3.096246 -6.419085
N -3.786854 -1.752567 -8.036001
Cl -4.717547 -0.126216 -3.041775
N 1.937472 3.096246 6.419085
N 3.786854 1.752567 8.036001
H -0.651275 -0.511439 6.768805
Cl 4.717547 0.126216 3.041775
H -4.205419 -4.224305 0.097048
H -4.694065 -2.716282 -0.058946
H -2.841858 -2.156197 0.541045
H -2.294714 -3.649758 0.435372
H -2.711071 -2.759669 3.660672
H -3.869235 -3.403899 5.559706
H -4.699239 -1.873525 6.969137
C -4.048690 -3.378918 -0.396564
C -2.750504 -2.930587 -0.068464
C -0.624694 -0.840128 2.892392
C -1.984902 -0.410203 2.834387
C -2.757036 -0.778334 4.009399
C -3.019691 -2.095718 4.267703
C -3.723535 -2.480941 5.386418
C -4.194572 -1.579020 6.218621
C -4.003662 -0.310282 6.062310
Zn -0.742680 -4.771506 -7.147117
H 0.356154 -0.209046 -8.186340
H 0.329071 -1.674997 -6.650012
H 0.061926 -2.470423 -1.338561
H -0.378831 -2.095718 -3.305866
H -1.193368 -2.955567 -4.266688
H -1.670450 -7.051027 -3.587651
H 0.381858 -2.960826 -11.013471
H 1.993497 -3.858803 -1.725167
H 2.866853 -3.265849 -2.945400
H 4.137164 -4.567456 -1.581079
H 3.151126 -5.798066 -1.858237
H 4.028828 -5.191964 -3.051056
H 0.641453 -5.485154 -1.169213
H -0.632570 -6.308190 -1.677655
H 0.810053 -7.001066 -1.654539
H -3.404057 -8.548532 -3.707044
H -0.956766 -3.418361 -12.881053
H 3.872125 -1.831453 -10.462639
H 3.139945 -2.983177 -11.296551
H 2.364407 -1.626351 -10.956177
H 4.753524 -2.031295 -8.637107
H 4.805048 -2.678154 -7.174742
H 6.023648 -3.647128 -9.299099
H 5.848341 -4.424148 -7.910796
H 4.785053 -4.639767 -9.087640
H 4.540937 -5.493043 -5.660782
H 6.728219 -4.996066 -4.977013
H 7.235249 -2.862220 -4.354862
H 5.603914 -1.184594 -4.243446
H 4.628431 -0.521957 -2.270438
H 4.875439 -1.593482 -0.122450
H 4.339695 -0.323430 -6.684546
H -3.456204 0.724430 -7.831115
H -2.593467 0.109125 -9.059301
H -1.545887 1.050489 -6.496447
C -0.425647 -1.034712 -6.681771
H -1.091647 1.600056 -7.912202
C 1.474414 -4.659489 -4.979995
C 1.641358 -4.904033 -3.552231
C 0.577148 -5.688941 -3.191001
C -0.273095 -5.855915 -4.280397
C -1.456007 -6.581659 -4.385418
H 0.340027 2.789908 -0.034130
C -2.371079 -6.772299 -5.365818
C -1.022977 -4.075738 -10.140627
C 0.181370 -3.428879 -10.210498
C 1.169209 -3.397325 -9.165059
C 2.475740 -2.929272 -9.256670
C 3.153773 -3.100190 -8.179595
C 2.216010 -3.727328 -7.219191
C 2.362821 -4.016574 -5.876703
C 2.512714 -4.094144 -2.534499
C 3.531373 -4.982918 -2.234309
C 0.327485 -6.160938 -1.804614
C 3.016669 -2.278469 -10.625942
C 4.549347 -2.847758 -8.115273
C 5.373488 -3.988964 -8.649558
C 3.704099 -3.670794 -5.291700
C 4.740914 -4.617417 -5.348584
C 6.055729 -4.325541 -4.966903
C 6.338736 -3.075210 -4.587569
C 5.371815 -2.064164 -4.518798
C 4.038776 -2.387594 -4.869748
C 2.539351 -0.202472 -1.752754
C 3.945185 -0.631082 -1.620741
C 4.080721 -1.185908 -0.446142
H -1.899117 2.219305 -4.237500
H 0.432247 1.674997 -4.890418
H -6.430136 1.785436 -4.083943
H -6.440501 4.124384 -4.066074
H -4.749745 5.293200 -2.949205
C 3.268674 -0.088089 -4.920527
N 0.286709 -5.235351 -5.396076
C -2.662860 0.184066 -8.069381
N -2.181274 -6.220102 -6.594423
C -1.304034 0.775705 -7.415344
N -1.547103 -4.796223 -9.101461
N -0.514888 -2.241656 -0.671455
C -0.018799 0.013148 -7.296817
N 0.987826 -3.946892 -7.864343
N -1.062813 -2.626879 -3.458959
N 1.919415 -0.493033 -0.540703
O 3.042053 -1.438341 -4.739035
H 3.456204 -0.724430 7.831115
H 2.593467 -0.109125 9.059301
H 1.545887 -1.050489 6.496447
H 1.091647 -1.600056 7.912202
H -0.340027 -2.789908 0.034130
C -2.859372 1.089931 -0.277647
C -2.627675 1.493561 -1.578250
C -1.458446 1.360771 -2.319075
C -1.250496 1.794639 -3.687431
C 0.020389 1.496190 -4.052803
C -3.729081 2.258748 -2.314123
C -4.732978 1.564557 -2.977825
C -5.743277 2.260062 -3.630776
C -5.749679 3.649758 -3.620025
C -4.744563 4.343948 -2.956257
C -3.734265 3.648443 -2.303307
H 1.899117 -2.219305 4.237500
H -0.432247 -1.674997 4.890418
H 6.430136 -1.785436 4.083943
H 6.440501 -4.124384 4.066074
H 4.749745 -5.293200 2.949205
N -0.282041 0.775705 -1.861182
Cl -2.475750 4.524069 -1.561480
Zn 0.742680 4.771506 7.147117
C 2.662860 -0.184066 8.069381
C 1.304034 -0.775705 7.415344
C 0.018799 -0.013148 7.296817
H -0.356154 0.209046 8.186340
H -0.329071 1.674997 6.650012
H -0.061926 2.470423 1.338561
H 0.378831 2.095718 3.305866
H 1.193368 2.955567 4.266688
H 1.670450 7.051027 3.587651
H -0.381858 2.960826 11.013471
H -1.993497 3.858803 1.725167
H -2.866853 3.265849 2.945400
H -4.137164 4.567456 1.581079
H -3.151126 5.798066 1.858237
H -4.028828 5.191964 3.051056
H -0.641453 5.485154 1.169213
H 0.632570 6.308190 1.677655
H -0.810053 7.001066 1.654539
H 3.404057 8.548532 3.707044
H 0.956766 3.418361 12.881053
H -3.872125 1.831453 10.462639
H -3.139945 2.983177 11.296551
H -2.364407 1.626351 10.956177
H -4.753524 2.031295 8.637107
C 2.859372 -1.089931 0.277647
C 2.627675 -1.493561 1.578250
H -4.805048 2.678154 7.174742
C 1.458446 -1.360771 2.319075
H -6.023648 3.647128 9.299099
C 1.250496 -1.794639 3.687431
H -5.848341 4.424148 7.910796
C -0.020389 -1.496190 4.052803
H -4.785053 4.639767 9.087640
H -4.540937 5.493043 5.660782
H -6.728219 4.996066 4.977013
H -7.235249 2.862220 4.354862
C 3.729081 -2.258748 2.314123
C 4.732978 -1.564557 2.977825
H -5.603914 1.184594 4.243446
C 5.743277 -2.260062 3.630776
H -4.628431 0.521957 2.270438
H -4.875439 1.593482 0.122450
C 5.749679 -3.649758 3.620025
C 4.744563 -4.343948 2.956257
C 3.734265 -3.648443 2.303307
H -4.339695 0.323430 6.684546
C 0.425647 1.034712 6.681771
C -1.474414 4.659489 4.979995
C -1.641358 4.904033 3.552231
N 0.282041 -0.775705 1.861182
C -0.577148 5.688941 3.191001
Cl 2.475750 -4.524069 1.561480
C 0.273095 5.855915 4.280397
C 1.456007 6.581659 4.385418
C 2.371079 6.772299 5.365818
C 1.022977 4.075738 10.140627
C -0.181370 3.428879 10.210498
C -1.169209 3.397325 9.165059
C -2.475740 2.929272 9.256670
C -3.153773 3.100190 8.179595
C -2.216010 3.727328 7.219191
C -2.362821 4.016574 5.876703
C -2.512714 4.094144 2.534499
C -3.531373 4.982918 2.234309
C -0.327485 6.160938 1.804614
C -3.016669 2.278469 10.625942
C -4.549347 2.847758 8.115273
C -5.373488 3.988964 8.649558
C -3.704099 3.670794 5.291700
C -4.740914 4.617417 5.348584
C -6.055729 4.325541 4.966903
C -6.338736 3.075210 4.587569
C -5.371815 2.064164 4.518798
C -4.038776 2.387594 4.869748
C -2.539351 0.202472 1.752754
C -3.945185 0.631082 1.620741
C -4.080721 1.185908 0.446142
C -3.268674 0.088089 4.920527
N -0.286709 5.235351 5.396076
N 2.181274 6.220102 6.594423
N 1.547103 4.796223 9.101461
N 0.514888 2.241656 0.671455
N -0.987826 3.946892 7.864343
N 1.062813 2.626879 3.458959
N -1.919415 0.493033 0.540703
O -3.042053 1.438341 4.739035
H 0.651275 0.511439 -6.768805
H 4.205419 4.224305 -0.097048
H 4.694065 2.716282 0.058946
H 2.841858 2.156197 -0.541045
H 2.294714 3.649758 -0.435372
H 2.711071 2.759669 -3.660672
H 3.869235 3.403899 -5.559706
H 4.699239 1.873525 -6.969137
C 4.048690 3.378918 0.396564
C 2.750504 2.930587 0.068464
C 0.624694 0.840128 -2.892392
C 1.984902 0.410203 -2.834387
C 2.757036 0.778334 -4.009399
C 3.019691 2.095718 -4.267703
C 3.723535 2.480941 -5.386418
C 4.194572 1.579020 -6.218621
C 4.003662 0.310282 -6.062310
H -3.753759 -2.532217 -8.441411
H -4.524732 -1.273997 -8.062260
H -0.624894 -0.774390 -5.746747
Zn -0.000000 -0.000000 -0.000000
H 3.753759 2.532217 8.441411
H 4.524732 1.273997 8.062260
H -3.197690 -4.324226 -3.298247
H -3.670050 -2.812259 -3.511423
H -4.372463 -6.346318 -9.055534
H -4.675721 -4.555623 -1.867617
H -5.104545 -3.035767 -2.038753
H 0.624894 0.774390 5.746747
H 3.197690 4.324226 3.298247
H 3.670050 2.812259 3.511423
H 4.372463 6.346318 9.055534
H 4.675721 4.555623 1.867617
H 5.104545 3.035767 2.038753
H -4.754830 -8.824630 -4.504711
H -5.075960 -7.772827 -2.445228
H -4.325563 -6.483053 -3.023692
H -5.709737 -6.958994 -3.668451
H -6.036261 -8.263230 -6.374917
H -5.823365 -7.406010 -7.708353
H -5.146112 -8.848296 -7.568535
H -3.989775 -5.804640 -12.328281
H -4.857490 -5.794122 -10.982930
H -4.666751 -4.445184 -11.824346
H -2.462470 -3.810158 -13.256321
H 4.754830 8.824630 4.504711
H -2.195750 -1.515912 -13.214553
H -3.243697 -1.977390 -12.095557
H 5.075960 7.772827 2.445228
H -1.745646 -1.592167 -11.680194
H 4.325563 6.483053 3.023692
H 5.709737 6.958994 3.668451
H 6.036261 8.263230 6.374917
H 5.823365 7.406010 7.708353
H 5.146112 8.848296 7.568535
H 3.989775 5.804640 12.328281
H 4.857490 5.794122 10.982930
H 4.666751 4.445184 11.824346
H 2.462470 3.810158 13.256321
H 2.195750 1.515912 13.214553
H 3.243697 1.977390 12.095557
H 1.745646 1.592167 11.680194
C -1.640259 -1.774918 -7.220480
C -2.641401 -1.262164 -7.335776
C -3.590217 -7.505932 -5.341527
C 1.640259 1.774918 7.220480
C -1.903134 -2.540105 -1.146449
C 2.641401 1.262164 7.335776
C -4.194542 -7.411269 -6.490873
C -2.014191 -2.975289 -2.337298
C -3.321114 -6.561938 -7.382372
C -3.326286 -3.456489 -2.840135
C -3.533805 -6.103089 -8.680358
C -4.347621 -3.624777 -1.800901
C -2.743335 -5.372086 -9.489872
C -3.043289 -4.969771 -10.773993
C -2.015692 -4.274266 -11.171409
C 3.590217 7.505932 5.341527
C 1.903134 2.540105 1.146449
C 4.194542 7.411269 6.490873
C 2.014191 2.975289 2.337298
C 3.321114 6.561938 7.382372
C 3.326286 3.456489 2.840135
C 3.533805 6.103089 8.680358
C 4.347621 3.624777 1.800901
C 2.743335 5.372086 9.489872
C 3.043289 4.969771 10.773993
C -4.140353 -8.109404 -4.202109
C -4.873611 -7.260072 -3.256968
C 2.015692 4.274266 11.171409
C -5.402831 -8.035777 -7.085670
C -4.231344 -5.278738 -11.539892
C -1.893779 -3.396010 -12.561944
C -2.300727 -2.011574 -12.372153
C 4.140353 8.109404 4.202109
C 4.873611 7.260072 3.256968
C 5.402831 8.035777 7.085670
C 4.231344 5.278738 11.539892
C 1.893779 3.396010 12.561944
C 2.300727 2.011574 12.372153