31
Bi1 H12 C15 N3
Bi -0.000000 0.000000 -1.014294
H 2.672831 -1.487020 -0.777477
C 1.025858 -3.290777 1.894125
C -3.362826 0.756970 1.894125
H -2.624212 -1.571230 -0.777477
H -0.048619 3.058249 -0.777477
C 2.336968 2.533808 1.894125
C 0.314092 -2.320982 1.224918
C 1.852983 1.432502 1.224918
C -2.167075 0.888480 1.224918
H -5.030899 -0.336961 2.013943
H 2.807266 -4.188405 2.013943
H 2.223632 4.525367 2.013943
H 0.622415 -3.782959 2.585814
H 2.964931 2.430507 2.585814
H -3.587346 1.352452 2.585814
H -0.578054 -2.136105 1.455719
N 2.954454 -2.879536 0.562102
N -3.970978 -1.118864 0.562102
H -1.560894 1.568662 1.455719
N 1.016524 3.998400 0.562102
H 2.138948 0.567443 1.455719
C 0.938395 -1.622925 0.204189
C 0.936297 1.624136 0.204189
C -1.874692 -0.001211 0.204189
C 2.248351 -1.952245 -0.079660
C 0.566519 2.923252 -0.079660
C -2.814869 -0.971006 -0.079660
C 2.330570 -3.530728 1.540723
C 1.892415 3.783697 1.540723
C -4.222986 -0.252969 1.540723