77
Mg1 H28 C44 N4
Mg -0.000007 0.000000 0.000000
C -2.888120 1.696171 0.789479
C 4.157284 -2.433570 -1.128797
C -4.157283 2.433570 1.128797
H 3.241732 0.581138 7.082121
C -5.357313 1.902772 0.990277
C -6.539802 2.546163 1.259391
C -6.439713 3.841883 1.697222
C 5.268575 -4.444169 -1.754593
H 3.205721 -1.649454 3.676958
C -5.268575 4.444169 1.754593
C 4.112915 -3.757884 -1.501331
H -3.205720 1.649454 -3.676958
H 4.284324 -2.393572 1.580845
C -4.112914 3.757884 1.501331
C 2.053052 -1.344629 -1.862163
H -4.284323 2.393572 -1.580845
C -2.053052 1.344629 1.862163
C 2.329895 -1.566778 -3.240951
H -5.405562 1.014176 0.685267
C -2.329894 1.566778 3.240951
C 1.314564 -1.073511 -3.944877
H -7.373147 2.124116 1.145782
C -1.314564 1.073511 3.944877
C 0.373733 -0.502322 -3.011845
H -7.214656 4.305071 1.958826
H 5.227137 -5.357749 -1.972715
C -0.373732 0.502322 3.011845
C -0.812367 0.176277 -3.344747
H -5.227136 5.357749 1.972715
H 3.283336 -4.193604 -1.581876
C 0.812368 -0.176277 3.344747
C -1.133992 0.329440 -4.801288
H -3.283335 4.193604 1.581876
H 3.094334 -1.987503 -3.591555
C 1.133992 -0.329440 4.801288
C -0.352889 1.156914 -5.599951
H -3.094333 1.987503 3.591555
H 1.224980 -1.093242 -4.880589
C 0.352890 -1.156914 5.599951
C -0.731574 1.383888 -6.917972
H -1.224980 1.093242 4.880589
H 0.423498 1.557657 -5.252707
C 0.731575 -1.383888 6.917972
C 5.357314 -1.902772 -0.990277
C -1.772701 0.720837 -7.453559
H -0.423498 -1.557657 5.252707
H -0.255514 2.004886 -7.439217
C 1.772701 -0.720837 7.453559
C 6.539802 -2.546163 -1.259391
C -2.517689 -0.119147 -6.699812
H 0.255515 -2.004886 7.439217
H -1.985177 0.844833 -8.360925
C 2.517690 0.119147 6.699812
C 6.439714 -3.841883 -1.697222
C -2.204010 -0.297867 -5.352351
H 1.985178 -0.844833 8.360925
H -3.241731 -0.581138 -7.082121
C 2.204011 0.297867 5.352351
H -2.740598 -0.857492 -4.820349
N 1.603170 -0.730548 1.071678
H 2.740598 0.857492 4.820349
N -1.603170 0.730548 -1.071678
N 0.853848 -0.693731 -1.751951
H 5.405562 -1.014176 -0.685267
N -0.853847 0.693731 1.751951
H 7.373147 -2.124116 -1.145782
H 7.214656 -4.305071 -1.958826
C 1.732356 -0.745203 2.439898
C -1.732356 0.745203 -2.439898
C 2.902566 -1.482780 2.803373
C -2.902566 1.482780 -2.803373
C 3.489890 -1.895980 1.654068
C -3.489889 1.895980 -1.654068
C 2.669886 -1.428985 0.567796
C -2.669886 1.428985 -0.567796
C 2.888120 -1.696171 -0.789479