31
P1 H12 C15 N3
P -0.000000 -0.000000 -1.227432
C -1.021522 -3.205044 1.154214
C -2.264889 2.487186 1.154214
C 3.286410 0.717858 1.154214
H 0.129228 2.773674 -1.522854
H -2.466686 -1.274922 -1.522854
H 2.337458 -1.498751 -1.522854
C -1.710791 1.330868 0.617495
C -0.297170 -2.147022 0.617495
C 2.007961 0.816154 0.617495
H -2.233325 4.477500 1.046078
H -2.760967 -4.172866 1.046078
H 4.994291 -0.304634 1.046078
H -2.905176 2.434874 1.840853
H -0.656075 -3.733394 1.840853
H 3.561251 1.298519 1.840853
N -0.970858 3.829194 -0.323463
N -2.830750 -2.755385 -0.323463
N 3.801608 -1.073809 -0.323463
H -1.963819 0.486702 0.946962
H 0.560413 -1.944068 0.946962
H 1.403406 1.457366 0.946962
C -0.802875 1.428985 -0.385741
C -0.836100 -1.409802 -0.385741
C 1.638975 -0.019183 -0.385741
C -0.486306 2.701828 -0.816022
C -2.096699 -1.772068 -0.816022
C 2.583005 -0.929761 -0.816022
C -1.865360 3.699264 0.668449
C -2.270977 -3.465082 0.668449
C 4.136337 -0.234183 0.668449