16
C12 Cl4
C -0.862437 -0.057204 1.689118
C 0.228359 0.293403 -0.408752
Cl 0.892480 -0.369060 -1.789777
C 0.135551 -1.658925 -0.230272
C 0.135551 1.658925 -0.230272
C -0.955245 1.306472 1.867598
Cl -0.153721 -2.223587 0.308093
C -0.457456 -2.166382 0.907903
C -0.457456 2.166382 0.907903
C -0.269430 0.564662 0.548017
Cl -0.153721 2.223586 0.308093
C -0.955245 -1.306472 1.867598
C -0.862437 0.057204 1.689118
C -0.269430 -0.564662 0.548017
Cl 0.892480 0.369060 -1.789777
C 0.228359 -0.293403 -0.408752