91
Hf1 H34 C48 N4 O4
C 2.988692 -0.835703 -0.271940
H -3.315202 -0.638929 -3.876376
C 3.208093 -0.803445 1.092629
H -1.181656 -0.327640 -4.993497
H -3.805832 -1.100219 3.289672
C 4.616061 -1.076025 1.550493
H -4.870013 -1.319573 1.116440
C 5.535127 -0.046995 1.692487
H -5.279447 0.820745 -1.477253
H -7.430269 0.419133 -2.225292
H -8.033190 -1.721185 -2.774972
H -6.568212 -3.414730 -2.612428
C 5.020312 -2.334087 1.892417
H -4.431211 -3.046989 -1.805651
C 1.599728 -0.208285 -4.682673
C 1.342320 -1.111509 -5.708457
C 1.815674 -0.911509 -6.967350
C 2.572348 0.223972 -7.272555
C 2.869490 1.075583 -6.257684
H -2.610355 1.477196 4.307544
C 2.392681 0.872358 -4.979985
H -2.242383 4.025578 1.832449
C 1.644644 2.506226 -0.632525
H -3.425767 3.390095 1.024569
C 2.508428 3.673965 -0.981096
H -2.415140 4.352996 0.308426
C -1.599728 -0.208285 4.682673
N 0.887970 -0.430865 1.820747
C -2.244110 -0.593768 -2.060045
C -1.342320 -1.111509 5.708457
C -1.815674 -0.911509 6.967350
C -2.485970 -0.563123 -3.462764
N 1.770757 -0.545381 -0.932226
C -2.572348 0.223972 7.272555
C -1.312951 -0.406672 -4.076478
O 0.703120 2.109452 -1.418264
C -2.869490 1.075583 6.257684
C -0.279866 -0.380865 -3.060602
O 1.800126 1.872356 0.441394
C -1.088368 -0.393768 3.284362
C -2.392681 0.872358 4.979985
C -2.047168 -0.595381 2.270371
H 3.315202 -0.638929 3.876376
C -3.394670 -0.967961 2.466734
H 1.181656 -0.327640 4.993497
C -3.980316 -1.098606 1.271389
C -2.988692 -0.835703 0.271940
C -3.208093 -0.803445 -1.092629
C -4.616061 -1.076025 -1.550493
H 7.430269 0.419133 2.225292
C -5.535127 -0.046995 -1.692487
H 8.033190 -1.721185 2.774972
C -6.820437 -0.279253 -2.144937
H 6.568212 -3.414730 2.612428
C -7.171133 -1.550218 -2.471069
C -6.309077 -2.555054 -2.366533
C -5.020312 -2.334087 -1.892417
Hf -0.000000 0.545101 -0.000000
C -1.644644 2.506226 0.632525
C -2.508428 3.673965 0.981096
C 2.485970 -0.563123 3.462764
C 1.312951 -0.406672 4.076478
H 3.805832 -1.100219 -3.289672
N -0.887970 -0.430865 -1.820747
H 4.870013 -1.319573 -1.116440
N -1.770757 -0.545381 0.932226
H 5.279447 0.820745 1.477253
O -0.703120 2.109452 1.418264
O -1.800126 1.872356 -0.441394
H 4.431211 -3.046989 1.805651
H 0.834415 -1.869572 -5.528153
H 1.632551 -1.534089 -7.632987
H 2.864307 0.390101 -8.140699
H 3.408491 1.814292 -6.428868
C 6.820437 -0.279253 2.144937
H 2.610355 1.477196 -4.307544
C 7.171133 -1.550218 2.471069
H 2.242383 4.025578 -1.832449
C 6.309077 -2.555054 2.366533
H 3.425767 3.390095 -1.024569
H 2.415140 4.352996 -0.308426
C 2.244110 -0.593768 2.060045
H -0.834415 -1.869572 5.528153
H -1.632551 -1.534089 7.632987
H -2.864307 0.390101 8.140699
C 0.279866 -0.380865 3.060602
H -3.408491 1.814292 6.428868
C 1.088368 -0.393768 -3.284362
C 2.047168 -0.595381 -2.270371
C 3.394670 -0.967961 -2.466734
C 3.980316 -1.098606 -1.271389