89
Zn1 H36 C48 N4
H -1.429628 -1.486992 4.716678
H -3.476253 -1.753888 3.346303
H 5.580064 -0.047660 -0.721491
H 7.695914 0.810220 -0.975718
H -7.695914 -0.810220 0.975718
H -8.463398 -4.298932 1.480389
H 0.776514 1.058052 5.384473
H -9.005152 -2.983516 2.122451
H 6.188032 4.460976 -1.381316
H 1.492833 0.705368 7.570021
H -9.086415 -3.183688 0.570778
H 4.021017 3.603096 -1.094347
H 2.501097 -3.002580 6.683515
H 8.463398 4.298932 -1.480389
H 1.772739 -2.726152 4.537449
H 9.005152 2.983516 -2.122451
H 2.979646 -2.201892 8.890033
H 9.086415 3.183688 -0.570778
H 1.905168 -1.172436 9.388007
H 3.319747 -0.667240 8.936002
C -2.305463 -1.129542 1.700320
H -4.698209 -1.038988 -1.758612
C 3.193338 1.153372 -0.611968
H -3.521400 -0.133448 -3.703475
C 2.889354 0.753028 0.683274
H 1.429628 1.486992 -4.716678
C 3.813345 0.753028 1.782594
H 3.476253 1.753888 -3.346303
C 3.163240 0.257364 2.853727
H -5.580064 0.047660 0.721491
C 1.817885 -0.038128 2.442557
C 0.827679 -0.569060 3.297679
H -6.188032 -4.460976 1.381316
C -0.493598 -0.874084 2.906862
H -4.021017 -3.603096 1.094347
C -1.513901 -1.324948 3.804259
C -2.639545 -1.477460 3.042351
C 4.571800 1.696696 -0.874802
C 5.688415 0.867412 -0.846593
H -0.776514 -1.058052 -5.384473
C 6.964546 1.382140 -1.003313
H -1.492833 -0.705368 -7.570021
H -2.979646 2.201892 -8.890033
H -1.905168 1.172436 -9.388007
C 1.218946 -0.802594 4.723913
H -3.319747 0.667240 -8.936002
C 1.125644 0.238300 5.637460
C -8.562720 -3.355264 1.358060
C 7.169209 2.707088 -1.197482
C 2.305463 1.129542 -1.700320
C 1.571086 0.019064 6.945465
H -2.501097 3.002580 -6.683515
C 6.064633 3.555436 -1.239592
C -3.193338 -1.153372 0.611968
C 2.109830 -1.153372 7.324876
H -1.772739 2.726152 -4.537449
C 4.755394 3.031176 -1.070979
C -2.889354 -0.753028 -0.683274
C 2.160996 -2.182828 6.419350
C 8.562720 3.355264 -1.358060
C -3.813345 -0.753028 -1.782594
C 1.727593 -2.011252 5.136569
C -3.163240 -0.257364 -2.853727
C 2.627506 -1.315416 8.772191
C -1.817885 0.038128 -2.442557
N 1.676427 0.284054 1.115380
C -0.827679 0.569060 -3.297679
N -0.975157 -0.746356 1.628519
C 0.493598 0.874084 -2.906862
C 1.513901 1.324948 -3.804259
C 2.639545 1.477460 -3.042351
C -4.571800 -1.696696 0.874802
C -5.688415 -0.867412 0.846593
C -6.964546 -1.382140 1.003313
C -7.169209 -2.707088 1.197482
C -6.064633 -3.555436 1.239592
C -4.755394 -3.031176 1.070979
C -1.218946 0.802594 -4.723913
C -1.125644 -0.238300 -5.637460
C -1.571086 -0.019064 -6.945465
C -2.109830 1.153372 -7.324876
C -2.160996 2.182828 -6.419350
C -1.727593 2.011252 -5.136569
C -2.627506 1.315416 -8.772191
N -1.676427 -0.284054 -1.115380
N 0.975157 0.746356 -1.628519
Zn 0.000000 0.000000 -0.000000
H 4.698209 1.038988 1.758612
H 3.521400 0.133448 3.703475