103
Ni1 H34 C58 N10
C -2.975944 0.998355 0.371451
C 1.496121 -4.409218 -3.341046
C -4.340901 0.986287 0.426219
C 1.652282 -5.543613 -4.103969
C 0.588331 -6.424578 -4.248322
C -0.612905 -6.149208 -3.667992
C -0.768345 -4.997260 -2.894918
N -0.004394 0.439934 1.981104
N -1.064089 6.649483 0.504613
C 2.975944 -0.998355 -0.371451
C 4.340901 -0.986287 -0.426219
N 0.004394 -0.439934 -1.981104
N 1.064089 -6.649483 -0.504613
H -0.045111 -0.134942 5.141085
H -0.705361 -4.405927 7.398665
H 1.379379 -3.542514 6.894634
H 1.741684 -2.412508 4.890022
C -0.009996 -0.448711 3.005133
C 0.414515 -4.281955 0.250635
C 0.315805 -3.990128 1.588631
C 0.108153 -2.561713 1.696714
C 0.005461 -1.851894 2.900284
C 0.763370 -5.584205 -0.236969
C 0.396707 -4.992872 2.603439
C -0.162695 -2.615470 4.181524
H -2.127319 -3.038948 3.882539
C -0.570379 -3.942953 6.579067
H -2.459375 -4.131653 5.937297
C 0.664574 -3.434999 6.277889
C 0.882626 -2.766869 5.088200
H -5.968871 -0.204059 0.188597
H -4.714231 -2.095448 -0.400872
H -2.413933 -1.945146 -0.479226
N 0.064644 -2.030720 0.439906
N 0.430563 -5.881517 3.326396
C -1.406403 -3.131104 4.493597
C -1.601296 -3.790457 5.715763
C -5.020823 -0.170049 0.147091
C -4.284252 -1.273725 -0.194839
C -2.910932 -1.172793 -0.237622
N -2.238705 -0.057049 0.042726
H 2.127319 3.038948 -3.882539
H 2.459375 4.131653 -5.937297
H 5.968871 0.204059 -0.188597
H 4.714231 2.095448 0.400872
H 2.413933 1.945146 0.479226
H 0.045111 0.134942 -5.141085
C 1.406403 3.131104 -4.493597
C 1.601296 3.790457 -5.715763
H 0.705361 4.405927 -7.398665
H -1.379379 3.542514 -6.894634
H -1.741684 2.412508 -4.890022
C 5.020823 0.170049 -0.147091
C 4.284252 1.273725 0.194839
C 2.910932 1.172793 0.237622
C 0.009996 0.448711 -3.005133
N 2.238705 0.057049 -0.042726
Ni 0.000000 0.000000 0.000000
C -0.414515 4.281955 -0.250635
C -0.315805 3.990128 -1.588631
C -0.108153 2.561713 -1.696714
C -0.005461 1.851894 -2.900284
C -0.763370 5.584205 0.236969
C -0.396707 4.992872 -2.603439
C 0.162695 2.615470 -4.181524
C 0.570379 3.942953 -6.579067
C -0.664574 3.434999 -6.277889
C -0.882626 2.766869 -5.088200
N -0.064644 2.030720 -0.439906
N -0.430563 5.881517 -3.326396
H -0.008463 2.283051 4.608041
H -2.223976 3.806914 3.240512
H -2.482201 5.722439 4.531552
H -0.698815 7.222165 4.751939
H 1.345790 6.740541 3.790966
H 1.607548 4.809657 2.490213
H -2.528287 1.810204 0.578972
H 0.008463 -2.283051 -4.608041
H -4.817385 1.775097 0.656735
H 2.223976 -3.806914 -3.240512
H 2.482201 -5.722439 -4.531552
H 0.698815 -7.222165 -4.751939
H -1.345790 -6.740541 -3.790966
H -1.607548 -4.809657 -2.490213
C -0.030380 0.255623 4.275180
C -0.024634 1.566649 3.984407
C -0.047631 1.681844 2.539143
C -0.159723 2.901812 1.865099
C -0.212572 3.040046 0.466644
H 2.528287 -1.810204 -0.578972
H 4.817385 -1.775097 -0.656735
C -0.286619 4.134945 2.713756
C 0.030380 -0.255623 -4.275180
C -1.496121 4.409218 3.341046
C 0.024634 -1.566649 -3.984407
C 0.047631 -1.681844 -2.539143
C -1.652282 5.543613 4.103969
C 0.159723 -2.901812 -1.865099
C -0.588331 6.424578 4.248322
C 0.212572 -3.040046 -0.466644
C 0.612905 6.149208 3.667992
C 0.768345 4.997260 2.894918
C 0.286619 -4.134945 -2.713756