40
Fe1 H18 C19 N2
Fe -1.688850 -0.430831 -0.774895
H 3.186568 -2.413061 3.903893
H 0.239266 0.892073 1.628710
H 4.312294 -0.244936 3.854722
H 0.789759 -1.338660 -1.342697
H -1.112225 -2.940986 -1.591445
H -2.632265 -2.659632 0.366306
C 0.806923 0.322409 1.068111
H -1.639522 -0.918176 1.862250
C 2.931423 -1.672575 3.402917
C -0.103091 -0.714890 0.461622
H -1.650347 2.213818 -0.334559
C 0.082469 -1.441463 -0.747918
H -0.767393 1.375167 -2.515105
C 3.548408 -0.478367 3.378281
C -0.991611 -2.345041 -0.887043
H -2.369389 -0.369381 -3.364773
C -1.842091 -2.192770 0.213426
H -4.211066 -0.571121 -1.719422
C -1.283867 -1.202621 1.051068
H -3.770363 1.008016 0.147485
C -2.044660 1.564540 -0.872703
N 2.364694 0.795454 -0.864372
H 0.700072 3.127445 0.320969
C -1.548289 1.094586 -2.094677
N 2.850551 0.331684 2.524295
H 2.094860 3.780587 -1.677466
C -2.451345 0.112167 -2.574688
H 3.304089 1.775555 -2.407372
C -3.479653 0.000089 -1.651969
H 2.667001 -0.007641 -0.922076
C -3.233787 0.888208 -0.602454
H 1.222731 -2.283205 2.340831
C 1.462876 1.232171 0.071201
C 1.256750 2.564737 -0.166408
H 3.052037 1.147920 2.345884
C 2.045377 2.936526 -1.290120
C 2.711845 1.826570 -1.691074
C 1.793481 -0.340009 1.999702
C 1.822706 -1.597599 2.524699