91
Zr1 H34 C48 N4 O4
H -3.336707 0.591997 -3.875508
C 5.013777 2.301247 1.825673
H -2.051883 -4.402193 1.365710
H -1.181968 0.277177 -5.040167
C -2.254108 0.531577 -2.039658
C -0.294620 0.297847 -3.061542
C -1.068653 0.324877 3.298961
H -7.423040 -0.451043 -2.195432
H -8.064581 1.650937 -2.732193
C -2.022247 0.539527 2.269740
C 1.659637 -2.560973 -0.655533
H -6.567072 3.441277 -2.531334
C -3.385520 0.886147 2.492116
C 2.564418 -3.680333 -0.993284
C -3.967788 1.030837 1.298030
C -2.972354 0.752587 0.298005
N 0.885605 0.359857 1.819622
C -3.198985 0.758947 -1.047941
N 1.755519 0.483877 -0.925033
C -4.612815 1.029247 -1.527239
C -5.487959 -0.012203 -1.666313
O 0.716503 -2.188913 -1.428684
O 1.804332 -1.939283 0.425394
C -5.013777 2.301247 -1.825673
C 1.591648 0.145207 -4.689101
C -1.591648 0.145207 4.689101
C -2.477252 0.509317 -3.455681
C 1.291797 1.029247 -5.708118
C -1.291797 1.029247 5.708118
C -1.319690 0.343957 -4.093696
C 1.779926 0.828907 -6.993148
C -1.779926 0.828907 6.993148
C 2.566161 -0.249113 -7.257215
C -2.566161 -0.249113 7.257215
C 2.892162 -1.128383 -6.253855
C -2.892162 -1.128383 6.253855
C 2.409263 -0.937583 -4.974664
C -2.409263 -0.937583 4.974664
C -1.659637 -2.560973 0.655533
C -2.564418 -3.680333 0.993284
N -0.885605 0.359857 -1.819622
N -1.755519 0.483877 0.925033
C -6.790217 0.266047 -2.109225
O -0.716503 -2.188913 1.428684
C -7.170260 1.495117 -2.418982
O -1.804332 -1.939283 -0.425394
C -6.295115 2.554057 -2.288932
Zr -0.000000 -0.614813 -0.000000
H 3.336707 0.591997 3.875508
H 1.181968 0.277177 5.040167
H 3.809146 0.986317 -3.348637
H 4.879542 1.283647 -1.132139
H 5.216002 -0.908963 1.457004
H 7.423040 -0.451043 2.195432
H 8.064581 1.650937 2.732193
H 6.567072 3.441277 2.531334
H 4.398387 3.027877 1.700449
H 2.637637 -1.544963 -4.266941
H 3.218162 -3.389363 -1.632894
H 3.008964 -3.980843 -0.197482
H 2.051883 -4.402193 -1.365710
C 2.254108 0.531577 2.039658
H -3.809146 0.986317 3.348637
C 2.477252 0.509317 3.455681
H -4.879542 1.283647 1.132139
C 1.319690 0.343957 4.093696
H -5.216002 -0.908963 -1.457004
C 0.294620 0.297847 3.061542
C 1.068653 0.324877 -3.298961
C 2.022247 0.539527 -2.269740
C 3.385520 0.886147 -2.492116
C 3.967788 1.030837 -1.298030
H -4.398387 3.027877 -1.700449
C 2.972354 0.752587 -0.298005
H 0.737423 1.789267 -5.516388
H -0.737423 1.789267 5.516388
C 3.198985 0.758947 1.047941
H 1.563755 1.447417 -7.693436
H -1.563755 1.447417 7.693436
C 4.612815 1.029247 1.527239
H 2.892162 -0.392213 -8.150651
H -2.892162 -0.392213 8.150651
H 3.456996 -1.882043 -6.443725
C 5.487959 -0.012203 1.666313
H -3.456996 -1.882043 6.443725
C 6.790217 0.266047 2.109225
H -2.637637 -1.544963 4.266941
C 7.170260 1.495117 2.418982
H -3.218162 -3.389363 1.632894
C 6.295115 2.554057 2.288932
H -3.008964 -3.980843 0.197482