267
H126 Ru1 C110 N6 O24
C 4.622837 -3.496523 -5.093343
C 3.377354 -2.975703 -4.796159
C 3.202998 -2.185801 -3.655327
C 4.478281 0.423575 -1.929410
C -4.374294 1.093265 2.295984
C -3.911935 -0.200865 2.402647
C -4.735964 -1.220483 2.858310
C -6.051041 -0.950495 3.209792
C -6.529689 0.330060 3.108473
N -0.794062 0.123572 -1.767083
N 1.018728 0.157057 1.924727
N -0.876242 -1.580064 0.576146
N 2.804865 -1.062110 -1.062073
C -0.808869 1.687539 6.192376
C -2.065828 2.314996 7.999753
C -3.440691 2.847429 8.288412
O 0.884537 -2.351564 -7.018915
C -1.060594 2.717715 9.047763
O 2.337878 -0.760297 -7.761345
C -8.307312 1.300808 -1.444486
C -8.343775 2.366278 -0.366724
C -9.631274 1.185272 -2.140090
O 1.215111 -4.230768 3.328140
H -2.844880 -0.829830 -4.029381
O 4.573418 -5.462001 0.952101
O 3.706818 -6.724004 2.659644
C -1.415045 1.199601 0.782798
O -1.144996 -4.082953 -2.828260
H -1.880551 -3.945999 2.462117
C -3.529535 2.267635 1.819147
H -2.868942 -4.038006 0.219298
O 1.704124 -6.095642 -3.615436
O -4.894958 -1.681121 -1.497437
O 1.932712 -6.166985 -1.373016
O -7.975627 0.047252 -0.850713
C -5.700663 1.358727 2.660939
C -3.163608 3.236573 2.945025
O -1.746730 -0.965277 4.840977
H 2.522785 -0.469344 -5.794775
H 0.538600 -1.395447 -5.299961
N 1.130339 1.851643 -0.439195
H -0.181408 -0.733299 -6.540139
H 1.621387 -0.778548 4.905818
O -2.128019 0.900050 7.945683
H 1.167912 -1.256682 -10.053658
H 0.088827 -0.829830 -9.000192
H 0.127696 -2.304958 -9.528108
N -2.322736 1.781356 1.201298
H 3.085464 -2.730301 -9.331120
O 1.111829 1.538669 -5.278608
H 2.115583 -3.816284 -8.748600
C 6.055634 0.114372 2.570504
H 3.203923 -3.161678 -7.829312
C 5.106483 -0.876739 1.979544
O -0.742976 4.739303 -2.391519
C 7.224674 -1.730292 1.772978
O -4.426490 4.269162 -1.033042
C 8.303205 -1.561361 0.741810
O -4.168287 5.990295 -2.504529
C 7.327770 -3.078721 2.507522
O 1.477016 4.103701 3.354266
O -1.408752 5.942331 1.339669
O 0.005905 7.324546 2.468613
H -1.673248 1.245604 -4.624816
H 2.148899 4.215466 -2.321389
H 3.248345 4.215466 -0.131558
H 2.861503 1.242587 4.281918
C 6.046749 -6.841954 2.238618
H 0.858809 3.486953 -7.035965
H 0.112889 5.624228 -6.644890
O -7.283198 1.525245 -2.391954
H -0.658945 6.244143 -4.553829
H 2.345097 1.652848 -6.842795
C 5.065947 4.824673 3.722199
H 0.856958 1.321020 -7.245865
C 5.593459 3.828132 2.933641
C 4.734633 2.974278 2.246963
O -1.664919 2.724351 6.692347
H 4.706869 -1.434663 2.664437
H 4.403318 -0.436162 1.476338
C 6.348264 1.284217 1.627777
H -1.632528 6.480948 -2.691349
H -1.932377 5.862541 -1.278756
H -3.037375 4.898731 -3.719322
H -4.027617 3.204899 -2.661063
H -2.800458 3.327072 -1.674258
H -5.711953 7.164213 -0.809071
H 1.536245 -6.117965 3.910859
H -4.418161 6.643846 -0.092211
H 2.722684 -5.146614 4.271989
H -5.810052 6.001306 0.235794
H 2.089670 -6.065174 1.667527
H -6.761424 5.753943 -2.651957
H -6.918752 4.512604 -1.708744
H 3.102123 -4.104371 1.071630
C 5.509057 -2.484447 -3.113417
H -6.082137 4.393447 -3.029444
C 5.682674 -3.265751 -4.248111
H 3.357549 5.696627 4.370452
H 4.044240 -4.114930 2.339583
H 3.492666 -7.718282 0.280558
H 4.399617 -8.685109 1.117842
H 0.690375 -5.344202 5.688625
H 1.247502 5.888182 4.195755
H -0.703367 -4.499549 7.305862
H -0.112924 5.183802 3.849153
H -1.839831 -2.514613 7.011169
H 1.630642 6.301459 1.898185
H 0.231347 5.618195 0.257136
H -0.096265 4.446238 1.263144
H -2.243331 8.631798 2.868409
H -2.367343 7.156671 3.385926
H -3.181747 7.616706 2.129857
H -0.927328 9.108424 0.794869
H -1.854638 8.150647 -0.031090
H -0.303568 7.919876 -0.016824
H -2.939277 -5.819320 -3.703463
H -2.970742 -0.876588 6.400625
H -5.228863 -5.571957 -3.590508
H -3.020717 0.406984 5.496383
H -6.204298 -3.715227 -2.625261
H -0.729280 -0.211423 7.057163
H -0.729280 -5.513133 -4.138954
H -0.751491 -6.018417 -2.645201
H 1.195676 -4.173754 -3.607821
H 2.167409 -4.194870 -1.595206
H 0.729245 -4.600605 -1.075456
H 4.303369 -6.514651 -3.547756
H 4.468101 -6.492026 -1.988766
H 3.966502 -5.212979 -2.742293
H 2.757852 -8.487520 -3.407885
H 1.436296 -8.369872 -2.573356
H 2.813379 -8.526736 -1.840507
O 5.957720 -1.637078 1.123316
H -6.772530 -2.146585 -1.031980
O 7.250217 -0.663162 2.740038
H -6.630009 -1.467846 -2.446909
H -6.148770 -0.057576 -0.015736
H -5.443570 0.761437 -2.451737
H -10.322592 1.037457 -1.491279
H -9.606286 0.447708 -2.755194
H 2.654200 -3.149611 -5.355662
H 2.365457 -1.831348 -3.462033
H 4.388511 0.957517 -1.135402
H 3.875807 0.746353 -2.602174
H -3.033674 -0.393929 2.165712
H -4.407055 -2.087761 2.928247
H 0.103634 1.809712 6.496278
H -6.604096 -1.633760 3.512237
H -0.819975 1.660389 5.222590
H -7.411097 0.514074 3.340977
H -3.709259 2.580458 9.169440
H -4.060933 2.497501 7.643669
H -3.429770 3.806714 8.234445
H -1.364145 2.425103 9.910521
H -0.964346 3.672475 9.048777
Ru 0.123050 0.140073 0.071855
H -0.212873 2.310471 8.850850
C -1.722668 -0.793480 -2.207381
C -2.208349 -0.387141 -3.513703
O 5.156457 2.017557 1.351588
C -1.562378 0.756761 -3.841484
C -0.665978 1.081349 -2.751651
C -2.354756 7.714746 2.605784
H -5.671233 1.753905 -1.244120
H -9.056564 2.176231 0.247538
H -8.490182 3.224507 -0.769853
C 1.914573 1.089796 2.381846
H -7.507344 2.373820 0.103919
C 2.270320 0.770336 3.742249
C 1.587331 -0.340987 4.085774
C -1.058743 8.201930 0.504740
C 0.790510 -0.724400 2.939710
H -9.811738 1.996742 -2.621499
C -0.065910 -1.827879 2.891489
C -0.836818 -2.219135 1.790710
C -1.718966 -3.354138 1.762777
C -2.269614 -3.399387 0.529846
C -1.758020 -2.279769 -0.213802
C -2.140605 -1.925014 -1.511553
H 6.720669 0.946959 0.798410
H 5.726725 0.438658 3.433855
H -4.042424 2.759947 1.145412
H 9.162031 -1.621693 1.163400
H 8.212510 -0.703132 0.320916
C 1.551423 1.156765 -6.588954
H 8.223615 -2.252167 0.079323
C 1.850716 -0.308709 -6.489593
H 8.179193 -3.139053 2.947940
H -6.030311 2.227514 2.604384
C 0.627074 -1.177496 -6.242013
H -2.632024 3.953021 2.589453
C 1.609912 -1.921093 -8.165692
H -2.663490 2.770506 3.618872
C 0.660761 -1.543261 -9.290729
H -3.966537 3.594043 3.333070
C 2.593675 -3.006322 -8.554393
H 7.244479 -3.795168 1.874976
H 6.624421 -3.143578 3.158482
C 0.201177 2.181661 -2.700552
C 1.055376 2.506250 -1.637657
H 5.019674 -7.849505 -0.054204
C 1.994162 3.616215 -1.626753
H 5.641583 5.393457 4.179524
C 2.600338 3.615310 -0.421616
H 6.515217 3.726774 2.860356
C 2.057094 2.511076 0.336613
H 6.713265 -6.838937 1.547112
C 2.405622 2.179700 1.647852
H 6.102462 -7.662475 2.733939
H 6.195008 -6.099866 2.829726
H 7.003860 1.871553 2.034987
C 0.162493 3.145924 -3.857721
C 0.616524 2.802482 -5.139028
C 0.575433 3.730846 -6.184345
C -0.240452 -2.620647 4.151584
C 0.114925 5.004313 -5.950515
C -0.346139 5.381541 -4.702212
C 0.419401 -3.826390 4.352742
C -0.333738 4.438998 -3.663889
C 2.064312 -5.368184 3.595257
C 2.738417 -5.714342 2.312763
C 3.612236 -4.669988 1.671826
C -1.828170 5.655299 -2.220760
C 4.676884 -6.722798 1.615679
C -3.118261 5.061628 -2.755974
C 4.369076 -7.846489 0.652395
C -3.559334 3.797665 -2.052141
C -5.066168 5.391948 -1.546093
C 0.246340 -4.539821 5.548920
C -5.269584 6.388941 -0.456278
C -0.593422 -4.027297 6.511491
C -6.324607 4.974146 -2.304689
C 3.344778 3.108819 2.365963
C -1.278262 -2.840106 6.344733
C -1.104461 -2.140703 5.149291
C 2.835590 4.115918 3.186683
C 3.698674 5.002653 3.852147
C -3.050702 -2.900891 -2.196296
C -2.507642 -4.038760 -2.800895
C -3.315198 -5.060640 -3.318419
C -4.682842 -4.905284 -3.240667
C 0.786993 5.352732 3.530477
C -5.277542 -3.794866 -2.662737
C 0.727764 6.107491 2.226176
C -0.102188 5.408540 1.142448
C -4.444074 -2.790483 -2.134852
C -1.204595 7.303731 1.708668
C -2.430274 -0.257276 5.885588
C -0.499580 -5.283417 -3.225513
H 4.771651 -1.333606 -0.917699
C 0.973936 -4.983264 -3.103008
H 6.230175 -2.329091 -2.546651
C 1.455730 -4.850985 -1.667360
H 6.517068 -3.632270 -4.436548
C 2.523340 -6.638332 -2.569325
C -1.431703 0.419050 6.791917
C 3.943365 -6.172264 -2.725743
H 4.743888 -4.004823 -5.862547
C 2.369159 -8.143626 -2.600111
C -6.307764 -1.456986 -1.532421
C -6.544867 -0.107802 -0.909698
C -6.080471 1.058574 -1.782969
H 5.380604 0.480891 -2.253123
C 1.753358 -0.773269 -0.658473
C 4.149002 -1.019878 -1.606448
C 4.269867 -1.928785 -2.812200