99
Fe1 H52 C40 N4 O2
Fe 0.000563 -0.016805 0.069136
C 3.595747 1.790598 1.304768
C 4.083037 0.412034 0.860732
C 2.989272 -0.561206 1.190094
H 0.261717 -5.085732 0.685621
H 2.315294 -2.648510 -3.556327
H 1.054881 4.389422 -2.253859
H -0.917482 4.897314 -0.927046
H -2.601901 4.775288 2.662468
H 0.396723 -5.112116 -1.335865
H 2.388071 -5.936616 -2.132823
H 2.259393 1.480586 2.793699
H 1.644480 2.255616 1.565489
H 0.799634 -4.007286 -3.900075
H -0.607389 -4.307404 -3.276032
H 0.364026 -5.488088 -3.622690
H 1.375521 3.416512 -4.388021
H 1.740461 2.031352 -5.027445
C -2.553383 1.712105 2.904535
H -2.505919 4.435594 0.032953
H -3.159858 5.787774 1.602580
C -2.138870 0.638277 3.587318
C -1.236013 -0.122572 2.777249
H -1.638924 5.408504 1.598034
C -0.749778 -1.415718 3.068912
C -0.269872 -2.271549 2.054876
H -4.710324 3.301082 1.049851
C -0.133811 -3.716732 2.141342
H -4.093302 2.958090 -0.350355
H -4.577427 4.415806 -0.044989
H -3.405612 -0.577366 0.229440
H -2.732688 -1.969122 -0.070028
H -3.849657 -2.226366 -1.993035
H -4.891740 -1.269946 -1.287900
H -1.679004 -0.775246 -2.982673
H -1.832996 0.751728 -2.607318
H 3.004039 -0.313526 -3.949688
C -0.818336 -1.991878 4.486525
C -0.234011 -1.019298 5.541631
H -2.695772 -2.011996 -3.070297
C -2.180005 -2.567379 4.855762
H -3.664023 -0.867590 -3.573514
C -1.846707 1.727276 1.651265
H 2.913331 -4.492092 -2.443692
C -2.528069 5.082002 1.754429
H 2.708712 -4.947216 -0.957733
C 0.155188 -4.192964 0.920140
C 0.268045 -3.055813 0.041620
H 4.170580 2.156676 1.994842
C 0.760608 -3.100336 -1.258214
C 1.225748 -1.925918 -1.903704
H 3.261395 1.615804 -3.586303
C 2.245681 1.541599 1.824757
C 2.062157 -1.909428 -3.051575
H 3.647430 4.128880 -2.852076
C 2.430261 -0.608697 -3.279098
H 4.652596 2.931706 -2.981552
C 1.784760 0.214154 -2.315164
H 3.780327 3.086712 -1.687591
H 3.149593 -0.992914 2.043613
C 1.790034 1.629985 -2.307274
C 0.891396 2.371705 -1.554447
C 0.585522 3.789186 -1.721071
H 2.748792 3.228526 -5.118665
C -0.486094 4.073473 -0.972589
C -0.855252 2.876299 -0.247986
C -1.826667 2.795828 0.727232
C 0.918819 -4.497699 -1.893348
C 2.369086 -5.017134 -1.853698
C 0.311289 -4.582787 -3.305831
C 2.088525 2.801105 -4.569556
C -2.806520 3.975523 0.844995
C -4.169243 3.630882 0.328480
C -3.001647 -1.124834 -0.461945
C -3.975171 -1.352396 -1.591136
H 3.570434 2.407324 0.556390
C -2.132542 -0.148626 -2.397116
H 4.262343 0.408736 -0.092042
H 4.898350 0.177876 1.329524
H 2.904893 -1.240264 0.501641
C -3.132434 -1.180900 -2.824289
N -1.053543 0.583200 1.590356
N -0.019899 -1.882385 0.755267
N 1.055935 -0.600782 -1.462390
N 0.013853 1.842047 -0.619904
O -1.878349 -0.459298 -1.029044
O 1.819567 0.277805 1.240318
H -3.183062 2.334768 3.189083
H -2.397281 0.418630 4.454332
H -0.230847 -4.224954 2.913164
H -0.209752 -2.760642 4.481204
H 0.598178 -0.663114 5.221570
H -0.085293 -1.490912 6.364289
H -0.853143 -0.300334 5.691803
H -2.806520 -1.850394 4.984179
H -2.104064 -3.073952 5.668011
C 2.722423 2.367418 -3.266615
H -2.489043 -3.139912 4.149196
C 3.797203 3.202142 -2.640569