95
H36 Pt1 C48 Br2 N4 O4
C 1.002315 -0.403178 -4.823621
C -2.640067 1.387989 9.467307
H -1.178418 -1.992283 -4.566922
H 4.054755 2.323701 -2.067857
H -2.910090 -2.860012 -3.080474
H 3.039232 1.148159 -3.946388
C 1.526220 -0.489101 -7.565559
C 2.079474 -1.430478 -6.717471
C 1.809451 -1.367216 -5.365630
H 0.341932 1.135885 -7.608651
H -2.874870 -4.635127 -0.968039
H -4.678451 -6.053330 -1.204883
O -1.705257 0.458886 8.919160
H -7.183506 -3.022416 -0.439160
H -5.376990 -1.582496 -0.238135
C 2.640067 -1.387989 -9.467307
H -9.031112 -5.910755 -1.009086
H -8.582051 -4.764484 -0.037841
H -8.605532 -4.517101 -1.586850
O 1.705257 -0.458886 -8.919160
C 2.515328 1.511680 -0.869699
C 3.294580 1.789278 -2.031986
C 2.735455 1.141550 -3.066942
C -0.371282 -1.016914 -2.860517
C 1.586388 0.439058 -2.574650
H 0.083649 -1.232194 5.353411
C -1.253261 -1.827046 -3.654492
C -2.207149 -2.302928 -2.835402
C -1.950333 -1.804385 -1.520076
C -2.748663 -2.042326 -0.393702
C 0.456398 0.555195 -5.693375
C 0.716149 0.500431 -7.041665
H -0.083649 1.232194 -5.353411
C -3.935886 -2.954433 -0.562772
C -3.737771 -4.306542 -0.863186
C -4.819333 -5.156331 -1.005017
C -6.099009 -4.685170 -0.853872
C -6.317669 -3.342503 -0.551935
C -5.231705 -2.482328 -0.421988
C -8.436767 -5.164829 -0.898636
N -0.814473 -1.030133 -1.554559
N 1.486597 0.670389 -1.219217
O -7.096922 -5.612384 -0.990875
H -4.054755 -2.323701 2.067857
H -3.039232 -1.148159 3.946388
H 1.178418 1.992283 4.566922
H 2.910090 2.860012 3.080474
H -0.341932 -1.135885 7.608651
H 2.874870 4.635127 0.968039
H 4.678451 6.053330 1.204883
H 7.183506 3.022416 0.439160
H 5.376990 1.582496 0.238135
Br 1.337644 -1.975948 0.625607
H 9.031112 5.910755 1.009086
H 8.582051 4.764484 0.037841
H 8.605532 4.517101 1.586850
C -2.515328 -1.511680 0.869699
C -3.294580 -1.789278 2.031986
Pt 0.000000 0.000000 0.000000
C -2.735455 -1.141550 3.066942
C -1.586388 -0.439058 2.574650
Br -1.337644 1.975948 -0.625607
C 0.371282 1.016914 2.860517
C 1.253261 1.827046 3.654492
C 2.207149 2.302928 2.835402
C 1.950333 1.804385 1.520076
C 2.748663 2.042326 0.393702
C -0.456398 -0.555195 5.693375
C -0.716149 -0.500431 7.041665
H -2.629794 2.099923 7.055406
C 3.935886 2.954433 0.562772
H -2.189538 2.001725 4.803329
C 3.737771 4.306542 0.863186
C 4.819333 5.156331 1.005017
C 6.099009 4.685170 0.853872
C 6.317669 3.342503 0.551935
C 5.231705 2.482328 0.421988
H -2.681157 1.274684 10.418815
H -3.507370 1.230306 9.087496
C 8.436767 5.164829 0.898636
H -2.358303 2.282156 9.262847
N -1.486597 -0.670389 1.219217
H 2.629794 -2.099923 -7.055406
N 0.814473 1.030133 1.554559
H 2.189538 -2.001725 -4.803329
O 7.096922 5.612384 0.990875
H 2.681157 -1.274683 -10.418815
H 3.507370 -1.230306 -9.087496
C -0.732292 0.325752 3.347179
H 2.358303 -2.282156 -9.262847
C -1.002315 0.403178 4.823621
C -1.526220 0.489101 7.565559
C -2.079474 1.430478 6.717471
C -1.809451 1.367216 5.365630
C 0.732292 -0.325752 -3.347179