104
Mn1 P1 H39 C56 N4 O3
Mn 0.994851 -0.613379 0.286275
C 1.458717 2.540604 -2.473466
C 0.899068 1.637146 -3.286885
H 0.551511 -8.215540 1.692634
C 2.361817 2.515624 -0.147583
H 1.265782 -6.015183 1.425398
H -0.513053 -3.350607 -3.729177
H -0.574628 -4.938944 -1.890084
C 2.736741 3.956160 -0.265097
C 2.130569 4.882517 0.583852
C 2.422024 6.227295 0.479324
C 3.308704 6.654043 -0.457710
H -2.393144 -4.980578 0.211577
H -3.099204 -7.180935 0.549519
H -1.594036 -8.790089 1.190292
C 0.376364 -3.171581 1.766152
C 1.194628 -1.656103 3.119107
C -1.911490 3.417000 -0.856185
C -2.276835 4.505729 -0.073327
N 2.037522 0.652919 1.435727
H -2.840589 -1.502057 0.050872
C -2.976054 5.565314 -0.640158
H -3.697166 -2.809365 -1.662766
C -3.309927 5.536171 -1.988110
C 0.223111 -3.644126 3.112776
C -2.945950 4.445360 -2.770869
H -5.039502 -1.849701 -3.294358
C 0.707501 -2.709443 3.915980
C -2.246732 3.385774 -2.204037
C -3.668431 0.242407 -0.553620
H 1.249362 -1.691492 -5.247698
H 0.481726 -1.683165 -7.437291
C -4.986137 0.034237 -2.557399
H -1.542040 -0.675622 -7.953649
H 3.550899 1.682944 4.042716
C -4.471643 0.816957 -1.530300
H 3.761623 3.212993 2.166762
C -1.988117 -0.078174 -6.072866
C -1.528356 -0.082338 -4.761833
C 0.110908 -1.922561 -2.320450
N 1.290412 0.602542 -1.273571
C -0.005401 -3.338117 -0.640868
C 2.824314 -1.121106 7.197582
C 2.713479 -1.273070 5.828301
O -0.874293 0.213264 0.849622
O -1.213640 2.261656 -0.322295
O -3.252457 1.033453 0.510160
C -0.306434 -3.169499 -2.841563
C -0.352958 -4.037568 -1.829582
C 0.240899 -0.756809 -3.053264
C -0.024557 -3.866868 0.640420
H 3.496166 7.561665 -0.533856
H 0.986641 1.364444 5.212237
H 4.555257 6.056596 -1.923312
H 4.050341 3.816686 -1.773801
H 1.169998 1.595512 7.518817
H 2.375500 0.063381 8.722067
C -0.504843 -5.292833 0.819454
C -1.799287 -5.623823 0.525170
C -2.212523 -6.947784 0.706316
C -1.320370 -7.905366 1.109656
C -0.043714 -7.566049 1.394791
P -1.753447 1.356533 0.793491
C 0.383206 -6.244170 1.242219
N 0.964748 -1.927973 1.786250
H 1.639337 3.427408 -2.688239
H 0.648663 1.768294 -4.173075
C -3.378344 -1.116943 -0.602401
C -3.891469 -1.899662 -1.629600
C -4.694681 -1.325113 -2.608018
C -0.314644 -0.688112 -4.453023
C 0.437940 -1.287642 -5.455146
H 1.524397 4.591079 1.225859
H 2.011524 6.839315 1.046331
C -0.021821 -1.281397 -6.766179
C -1.234165 -0.677704 -7.075088
H -1.825285 2.297045 1.671310
N 0.322999 -2.030809 -0.958484
H -2.053797 4.524464 0.828753
C 2.339924 0.481803 2.768562
H -3.219617 6.293909 -0.116514
H -3.777898 6.243949 -2.366445
H -3.168989 4.426624 -3.672948
H -2.001800 2.657179 -2.727781
H -5.523892 0.417270 -3.212412
C 3.169134 1.578859 3.200795
H -4.665946 1.724578 -1.497134
C 3.286811 2.413621 2.168023
H -0.146339 -4.458071 3.372492
H 0.721185 -2.742750 4.845357
H -2.799539 0.325675 -6.280314
C 1.856902 -0.511168 3.582529
H -2.031903 0.319430 -4.090721
C 2.568436 1.876542 1.070441
C 2.021102 -0.359204 5.073163
C 1.729647 1.918176 -1.230525
C 1.450507 0.729525 5.707383
C 0.760866 0.425597 -2.536087
C 1.569552 0.873163 7.088244
C 3.936770 5.758912 -1.297806
C 3.637104 4.420379 -1.197902
H 3.278601 -1.758106 7.700375
C 2.274244 -0.049031 7.804234
H 3.111664 -2.003747 5.413477