117
Fe1 H54 C56 N6
H -0.928171 2.465337 -1.865545
C -2.882183 0.938173 -0.138479
H 0.219623 1.841227 -4.343741
H -0.764319 3.021217 -4.041597
H 0.809634 4.149031 -2.920130
H 2.844038 3.436622 -2.454695
C -3.748328 1.971668 0.341628
H 2.657025 2.144251 -3.313024
H 2.335753 4.719962 -4.523905
H 0.894492 4.620626 -5.132069
H 1.928372 3.467727 -5.374958
H 0.821994 0.395337 -2.154515
C -6.691358 0.201682 -2.637556
C -5.334646 0.337140 -2.400960
H -3.303806 3.568066 1.528704
C -0.467160 1.817145 -2.421110
C -0.018592 2.513500 -3.685759
C 1.139817 3.431605 -3.500135
C 2.198057 2.765352 -2.726457
C 1.761189 2.018827 -1.509344
C 1.617856 4.122943 -4.745231
N 0.560543 1.204072 -1.636332
Fe -0.000000 -0.000000 -0.000000
H 1.751959 3.696501 3.046008
H 3.708273 2.293757 2.645635
H 5.209560 1.247218 -0.369532
H 7.459783 1.460941 0.033667
H 8.389831 0.562904 1.920497
H -1.751959 -3.696501 -3.046008
H -3.708273 -2.293757 -2.645635
H -0.669197 3.485788 4.404466
H -1.131264 5.507625 5.439709
H -1.616269 7.369923 4.182540
H -5.209560 -1.247218 0.369532
H -1.616091 7.231455 1.898393
H -7.459783 -1.460941 -0.033667
H -1.143821 5.248750 0.852834
H -8.389831 -0.562904 -1.920497
C -1.665351 2.282720 1.095029
H 0.669197 -3.485788 -4.404466
H 1.131264 -5.507625 -5.439709
H 1.616269 -7.369923 -4.182540
H 1.616091 -7.231455 -1.898393
C -3.006248 2.802477 1.093343
H 1.143821 -5.248750 -0.852834
H 2.488715 1.441876 -1.230922
H 1.614587 2.662002 -0.797491
H 3.303806 -3.568066 -1.528704
C 0.664859 2.296767 1.871444
C 2.428203 1.044532 1.502263
H -2.488715 -1.441876 1.230922
H -1.614587 -2.662002 0.797491
C 1.775108 2.911847 2.547051
C 2.848129 2.143248 2.325526
C -0.664859 -2.296767 -1.871444
C 3.284544 0.084285 0.986108
C -2.428203 -1.044532 -1.502263
C -0.612342 2.852647 1.804081
C 4.755202 0.203689 1.284451
C 5.575418 0.874959 0.401093
C -1.775108 -2.911847 -2.547051
C 6.924563 1.004397 0.642139
C -2.848129 -2.143248 -2.325526
C 7.479304 0.470591 1.758099
N -1.599327 1.133333 0.340432
C -3.284544 -0.084285 -0.986108
C 0.612342 -2.852647 -1.804081
C -0.869055 4.143011 2.509198
C -0.861014 4.236326 3.890550
C -4.755202 -0.203689 -1.284451
C -1.139142 5.450432 4.511783
C -5.575418 -0.874959 -0.401093
C -1.424127 6.561188 3.764432
C -6.924563 -1.004397 -0.642139
C -1.425149 6.476903 2.407734
C -7.479304 -0.470591 -1.758099
C -1.146087 5.285875 1.782654
C 0.869055 -4.143011 -2.509198
C 0.861014 -4.236326 -3.890550
C 1.665351 -2.282720 -1.095029
C 1.139142 -5.450432 -4.511783
C 1.424127 -6.561188 -3.764432
C 1.425149 -6.476903 -2.407734
N 1.073586 1.144872 1.236543
C 1.146087 -5.285875 -1.782654
C 3.006248 -2.802477 -1.093343
N -1.073586 -1.144872 -1.236543
N 1.599327 -1.133333 -0.340432
H 0.928171 -2.465337 1.865545
H 4.657405 -2.052943 -0.165440
H -0.219623 -1.841227 4.343741
H 0.764319 -3.021217 4.041597
H -0.809634 -4.149031 2.920130
H -2.844038 -3.436622 2.454695
H -2.657025 -2.144251 3.313024
H 7.065836 -0.571934 3.403157
H 4.807305 -0.801711 3.010801
H -2.335753 -4.719962 4.523905
H -0.894492 -4.620626 5.132069
H -1.928372 -3.467727 5.374958
H -0.821994 -0.395337 2.154515
H 1.111912 -1.133834 2.664190
C 2.882183 -0.938173 0.138479
C 3.748328 -1.971668 -0.341628
C 0.467160 -1.817145 2.421110
C 0.018592 -2.513500 3.685759
C -1.139817 -3.431605 3.500135
C -2.198057 -2.765352 2.726457
C -1.761189 -2.018827 1.509344
C -1.617856 -4.122943 4.745231
C 6.691358 -0.201682 2.637556
C 5.334646 -0.337140 2.400960
N -0.560543 -1.204072 1.636332
H -4.657405 2.052943 0.165440
H -7.065836 0.571934 -3.403157
H -4.807305 0.801711 -3.010801
H -1.111912 1.133834 -2.664190