15
H9 C4 N1 O1
C -0.947111 1.540000 0.437733
H -0.747077 2.286072 -0.164262
H -0.980221 1.866740 1.362515
H -1.345801 -1.802186 -1.370754
H -1.812089 1.148268 0.198778
H 2.064447 0.183183 0.641398
H -1.602398 -0.239709 -1.602131
N 0.102726 0.519717 0.319302
H 1.360876 1.011162 1.816211
H -2.082481 -0.936814 -0.245708
C 1.418817 0.891862 0.845252
H 1.711282 1.729634 0.429756
C -0.075236 -0.617197 -0.313073
O 0.871136 -1.453188 -0.372034
C -1.388568 -0.925240 -0.936135