27
H10 C15 O2
C 0.625801 1.093652 0.836256
C 2.001364 0.513223 0.685674
C 2.592071 -0.114352 1.779941
C 3.828564 -0.727949 1.631234
C 4.482610 -0.702836 0.405676
C 3.897411 -0.060573 -0.672246
C 2.655411 0.545205 -0.547654
C -0.694684 0.559894 -1.169275
C -2.008285 -0.020062 -0.762542
C -2.428252 -1.209113 -1.374249
H 2.151451 -0.123828 2.622076
C -3.622059 -1.798071 -1.016281
H 4.229253 -1.166232 2.372892
C -4.420684 -1.230198 -0.054377
H 5.328051 -1.123589 0.307075
C -4.013110 -0.054651 0.559474
H 4.350424 -0.033803 -1.506879
C -2.798649 0.545916 0.227228
H 2.254721 0.977803 -1.292527
H -1.885737 -1.611623 -2.042759
O -0.060741 0.072096 -2.102778
H -3.894693 -2.604276 -1.439894
H -5.242717 -1.637683 0.189181
H -4.569394 0.347623 1.215391
H -2.514999 1.335537 0.674152
O 0.036058 1.031108 1.913911
C -0.081946 1.663658 -0.369474