116
Dy2 H32 C40 N16 O26
H 4.331772 1.823589 -3.117513
H -4.331772 -1.823589 3.117513
H 4.868614 0.831735 2.928855
C -2.279551 -1.861395 0.936945
C 2.279551 1.861395 -0.936945
C -4.427019 -1.244266 -3.662808
C -3.337696 -2.693130 0.407479
C -5.153727 -1.693492 -4.759838
C -3.435996 -2.420704 -0.914116
C -2.468782 -1.423289 -1.256415
C 3.337696 2.693130 -0.407479
C -2.188879 -0.921802 -2.526528
C 3.435996 2.420704 0.914116
C -1.124578 -0.053373 -2.850117
C 2.468782 1.423289 1.256415
C -0.899884 0.482584 -4.185610
C 1.124578 0.053373 2.850117
C 0.204397 1.260945 -4.109665
C -0.204397 -1.260945 4.109665
C 0.659465 1.207572 -2.728487
C -0.659465 -1.207572 2.728487
C 1.786151 1.891418 -2.241076
C -1.786151 -1.891418 2.241076
C -3.043254 -1.407722 -3.652435
C 0.899884 -0.482584 4.185610
C 3.043254 1.407722 3.652435
H 5.443767 -0.034470 7.052740
N -4.594614 -2.288382 -5.832402
H 6.698250 -0.126762 7.870361
C -3.266626 -2.450726 -5.805027
C 3.266626 2.450726 5.805027
N -8.464063 -2.694242 -9.454955
C -2.468113 -2.049314 -4.740430
C 2.522832 2.760959 -3.215929
C -2.522832 -2.760959 3.215929
C 1.857119 3.808411 -3.832415
C -1.857119 -3.808411 3.832415
N -7.406044 -4.416644 -6.179294
C 2.517756 4.582324 -4.767827
C 4.490740 3.322491 -4.475351
O -6.200502 -0.470353 -7.324858
C -2.517756 -4.582324 4.767827
O -8.149083 -1.652350 -8.767960
C 3.856557 2.528562 -3.540173
O -7.750062 -3.716119 -9.252316
N -1.809000 -1.107497 -0.094241
N -0.162502 0.399188 -1.981768
C -3.856557 -2.528562 3.540173
N 1.809000 1.107497 0.094241
N 0.162502 -0.399188 1.981768
N 3.782466 4.325465 -5.050252
N -3.782466 -4.325465 5.050252
C 4.427019 1.244266 3.662808
O -5.163648 -4.374391 -9.602054
C 5.153727 1.693492 4.759838
N -4.161926 -4.874766 -8.962283
N 4.161926 4.874766 8.962283
O -7.573262 -3.144580 -6.225894
O -6.468777 -4.873654 -6.918716
O -8.102932 -5.123841 -5.479727
H -0.951165 -3.992994 3.614053
N 4.594614 2.288382 5.832402
O -3.990857 -1.585633 -8.888183
O 3.990857 1.585633 8.888183
N 8.464063 2.694242 9.454955
O -3.916330 -4.367719 -7.844494
O 3.916330 4.367719 7.844494
N 7.406044 4.416644 6.179294
O 6.200502 0.470353 7.324858
O 8.149083 1.652350 8.767960
O 7.750062 3.716119 9.252316
O 5.163648 4.374391 9.602054
O 7.573262 3.144580 6.225894
O 6.468777 4.873654 6.918716
O 8.102932 5.123841 5.479727
H 6.095565 1.574514 4.754070
C 2.188879 0.921802 2.526528
H 5.398211 3.169042 -4.709707
O 3.942072 0.673839 10.879163
N 4.540461 1.288744 9.997730
O 9.374214 2.684235 10.261255
O 5.743648 1.649014 10.155319
C 2.468113 2.049314 4.740430
O -3.512665 -5.783225 -9.454069
C -4.490740 -3.322491 4.475351
O 3.512665 5.783225 9.454069
N -4.540461 -1.288744 -9.997730
O -9.374214 -2.684235 -10.261255
O -5.743648 -1.649014 -10.155319
Dy -5.947561 -2.726477 -7.950546
O -3.942072 -0.673839 -10.879163
H -4.868614 -0.831735 -2.928855
H -6.095565 -1.574514 -4.754070
H -3.864695 -3.314707 0.896099
H 3.864695 3.314707 -0.896099
H -4.047704 -2.825452 -1.517719
H 4.047704 2.825452 1.517719
H -1.425553 0.318016 -4.959250
H 1.425553 -0.318016 4.959250
H 0.605442 1.746865 -4.820691
H -0.605442 -1.746865 4.820691
H -6.698250 0.126762 -7.870361
H -1.118014 -0.527062 -0.077578
H -5.443767 0.034470 -7.052740
H 1.118014 0.527062 0.077578
H -5.398211 -3.169042 4.709707
H -2.847316 -2.862146 -6.552608
H 2.847316 2.862146 6.552608
H -1.532531 -2.213882 -4.758027
H 1.532531 2.213882 4.758027
H 0.951165 3.992994 -3.614053
Dy 5.947561 2.726477 7.950546
H 2.064315 5.292857 -5.207127
H -2.064315 -5.292857 5.207127
H 4.188349 4.834736 -5.642271
H -4.188349 -4.834736 5.642271