142
Mn1 H64 C64 N8 Cl1 O4
H -1.958442 -4.898013 -1.423498
H -3.481626 -3.300588 -2.541369
C -2.444558 1.792429 -3.409460
C -1.568384 2.799659 -3.216999
C -0.454298 -2.390056 3.455295
O 5.110469 1.876560 4.349896
C -3.837551 -0.821384 -3.394855
C -3.953676 -1.282295 -4.701412
H -1.380387 -2.599851 3.211518
C -5.198467 -1.558330 -5.241157
H -0.440404 -1.605187 4.044098
C -6.331936 -1.338311 -4.489738
C -6.245313 -0.870798 -3.191262
C -4.992460 -0.638852 -2.630343
H -3.270645 1.845251 -3.873566
H -1.665126 3.698264 -3.513653
C -5.695732 -0.300837 -0.242654
C -0.451382 2.251423 -2.472710
C -5.017160 -0.168570 1.126205
C -6.097283 -0.177302 2.204163
C -4.233613 1.149625 1.182682
H -1.491881 -3.980026 5.363280
H -3.172873 -1.409237 -5.227246
C -4.077349 -1.355137 1.347283
H -5.270681 -1.896984 -6.126128
H -0.138512 -4.570008 5.976687
H -7.184953 -1.509342 -4.869813
H -7.034007 -0.708499 -2.685939
H -6.702955 0.582220 2.067721
H -6.605183 -1.013075 2.150102
C 3.235992 0.973057 -0.565563
H -5.678922 -0.105738 3.086629
H -3.541662 1.148773 0.487671
C 3.153144 -1.466957 0.023585
C 1.692396 -3.087598 -0.236442
H -3.382139 -1.353859 0.656459
H -3.660017 -1.281443 2.230547
H -4.587993 -2.190910 1.294211
C 3.766191 -2.678657 0.524476
C 2.869433 -3.672255 0.360489
C 0.525823 -3.790891 -0.582834
C 1.858266 2.402432 -1.509887
Mn 0.356866 -0.270166 -0.760127
C 3.776654 -0.210955 -0.032001
C 0.459269 -5.260309 -0.284769
C -1.709896 5.795789 -0.353865
C 0.528567 -6.191927 -1.310275
H -4.845288 1.900628 1.033939
C -2.406135 5.247766 0.897388
C 0.399234 -7.548247 -1.069599
H -3.812679 1.242489 2.063267
C -2.467714 6.397060 1.910197
C 0.186365 -7.988711 0.221616
C -1.717958 4.040965 1.530074
C 0.114666 -7.090106 1.269922
C -3.832405 4.877589 0.480342
C 0.247258 -5.719302 1.025695
H 4.635160 -2.759593 0.898217
C 3.100827 3.102318 -1.277816
C 0.075900 -4.886511 3.375320
H 2.990190 -4.584917 0.592783
C 3.950242 2.226503 -0.699339
C 0.160464 -3.582161 4.183353
H 0.667678 -5.890546 -2.199524
H 0.456696 -8.169539 -1.784494
C 1.647799 -3.309959 4.432897
H 0.087907 -8.917134 0.391476
H -2.910432 7.170001 1.500417
H -0.025302 -7.402775 2.156535
H -2.973898 6.111440 2.697781
C 0.722910 2.945344 -2.140836
H -1.558778 6.646045 2.177740
H 0.063893 -2.199429 2.644976
H -0.805763 4.286116 1.793156
H -2.220883 3.755771 2.320025
H 2.101666 -3.166404 3.575603
H -1.683995 3.306362 0.880847
H 1.744885 -2.510395 4.990097
H -4.267232 5.657772 0.074915
H 2.048492 -4.078001 4.890161
H -3.802387 4.145543 -0.170492
H 3.285222 4.009229 -1.493012
H -4.339275 4.592822 1.268686
H 4.844427 2.399025 -0.431512
H -4.004792 0.011407 -1.083242
C 2.739585 2.484008 5.514100
N -0.744183 -1.929358 -1.580847
N -0.687235 0.926412 -2.213754
N -4.811153 -0.275704 -1.285782
C 5.163472 -0.105525 0.528964
H 3.233763 3.327661 5.456358
Cl -0.565792 0.410337 1.314804
C 6.252343 -0.553656 -0.204270
H -0.402668 4.379832 -0.368442
H 1.825504 2.661002 5.820874
C 7.544133 -0.431825 0.282656
H 3.185734 1.887849 6.149033
C 0.832003 4.370247 -2.595455
O -6.893181 -0.424584 -0.395106
C 7.742422 0.118967 1.530188
C 1.642653 4.681851 -3.685395
C 6.678937 0.574765 2.289488
C 5.379428 0.472530 1.792501
C 1.791369 5.986628 -4.131016
C 1.125491 7.004720 -3.466457
C 0.318615 6.723361 -2.383994
C 0.155833 5.412833 -1.949318
C 1.922589 0.509377 4.249700
N -0.631317 5.099525 -0.819902
H 6.110316 -0.951308 -1.055493
H 2.105097 3.983670 -4.133084
H 8.283598 -0.723409 -0.237874
H 2.341808 6.179597 -4.880988
H 8.624942 0.186059 1.874649
H 6.832456 0.954952 3.146937
H 1.225149 7.902686 -3.759347
H -0.128220 7.429848 -1.933042
O -2.118308 6.802806 -0.902438
H 1.888970 0.077434 3.371793
H 2.370968 -0.082309 4.888252
C 4.137553 1.547065 3.694873
H 1.010737 0.690845 4.557818
C 2.696875 1.824378 4.142213
C 2.001493 2.745985 3.132768
C -0.540921 -3.803457 5.519843
H 0.110206 -3.907609 1.743114
H 3.470474 0.707884 2.116261
C -0.605930 -3.239460 -1.209407
C -1.957242 -1.824141 -2.195373
H -0.443835 -3.002402 6.076815
N 1.968731 1.112565 -1.063423
C -1.892060 0.617363 -2.777766
H 1.979880 2.311699 2.255568
N 1.890342 -1.744909 -0.417423
H 1.086210 2.925110 3.431939
N 0.140395 -4.739548 2.031276
H 2.494469 3.589639 3.067423
N 4.239098 0.894889 2.503494
C -1.793431 -3.975979 -1.579404
C -2.621233 -3.106554 -2.185559
O 0.007460 -5.972334 3.910740
C -2.488984 -0.656743 -2.767483