142
Fe1 H64 C64 N8 Cl1 O4
Fe -0.344456 0.060021 -1.059145
C 1.173575 -3.574173 2.806899
N -1.622011 -1.554784 -1.139939
H -3.704149 -0.783391 1.907753
N -2.011165 1.241293 -1.056348
H -0.605888 4.111508 0.817567
N 0.677987 1.679063 -1.817744
H 4.053977 0.796463 -0.425538
N 1.075455 -1.124075 -1.976977
H 0.857596 -4.116089 0.324760
H -2.325481 -4.682718 -0.910189
N -4.469152 -1.118779 2.182755
N 4.878850 1.054182 -0.586021
H -4.246303 -3.238785 -0.300145
C -1.244499 4.951743 -1.422626
H -5.004654 2.039163 -0.104191
H -3.617670 4.019718 -0.671028
C -1.462358 5.617224 -2.589859
N 1.188543 -4.924551 0.228766
Cl 0.221978 0.047135 1.088674
C -1.730109 6.983489 -2.584059
H 3.297290 3.352472 -2.635521
C -1.753392 7.661325 -1.410941
O -5.461992 -2.024327 4.007800
O 6.759759 1.763792 0.460730
H 4.047325 -1.918415 -2.914978
C -1.492293 7.031149 -0.209573
H 2.603798 -3.881317 -2.635139
C -1.211238 5.627815 -0.212307
H -5.922657 -0.287370 -1.891025
C -0.893595 5.294192 2.277266
O 2.407558 -6.486753 1.312389
H -8.202698 -0.741027 -1.337551
H -8.689972 -1.372968 0.839667
H -7.086792 -1.551253 2.464051
H 6.141104 0.904140 -5.531908
H 3.889335 0.510500 -4.835941
H 7.734306 1.299545 -3.972271
H 7.242043 1.412517 -1.696485
H 2.924766 1.617281 1.299597
H 3.021223 0.852949 2.701752
H 4.537925 3.287160 2.068103
H 3.282322 0.056844 1.336647
H 5.931560 2.852921 2.723585
H 4.557881 2.529889 3.476808
H 5.524113 -0.681010 2.161344
H 5.169883 0.063905 3.535210
H 6.543562 0.386936 2.779973
H -0.652453 -4.891012 -3.794279
H -0.344789 -7.199893 -4.137378
H 0.636410 -8.442594 -2.470955
H 1.386446 -7.503508 -0.510288
H -2.353753 -2.373837 5.915474
C -0.318180 4.867014 4.666074
H -3.547822 -3.275854 5.346259
H -3.867128 -1.867224 6.036191
H -1.262792 -2.532705 3.676895
H -2.064382 -2.101996 2.360070
H -2.495112 -3.417070 3.164339
H -1.685207 -0.292666 4.733885
H -3.178625 0.273963 4.841069
H -2.460188 0.176877 3.413118
H 3.568367 -2.576835 2.254681
N -0.878628 4.937622 0.958195
H 2.806690 -2.790424 0.862443
H 4.093890 -3.673024 1.215403
H 3.412040 -4.280253 4.033730
H 1.384783 4.801701 -2.095075
H 3.954194 -5.394094 3.020442
H 2.575526 -5.625335 3.799711
O -1.286075 6.390381 2.646150
H 1.461283 -2.919283 3.474511
H 0.578204 -4.229062 3.225735
H 0.696280 -3.115221 2.083521
H -1.149705 2.388673 3.894326
H -1.510587 2.701113 2.365780
H -2.315503 3.426611 3.542140
H -1.432423 5.145915 -3.414950
H 1.278347 3.031206 3.466612
H -1.898077 7.438910 -3.399346
H -1.951295 8.591586 -1.413223
H 0.915803 3.320699 1.934661
H -1.502271 7.520109 0.606015
H -0.008853 4.192707 5.307443
C -1.254477 -2.880449 -1.271823
C -2.337122 -3.731275 -0.911864
C -3.381517 -2.951057 -0.570288
C -2.917527 -1.570671 -0.700095
C -3.727432 -0.460360 -0.452561
C -3.288387 0.865305 -0.645528
C -4.104944 2.030337 -0.411614
C -3.344930 3.110640 -0.710932
C -2.059393 2.630505 -1.094655
C -1.001694 3.453089 -1.429137
C 0.292159 2.999432 -1.759574
C 1.391435 3.852024 -2.083470
C 2.434167 3.057684 -2.366002
C 2.033372 1.694949 -2.199476
C 2.806690 0.584639 -2.443352
C 2.360993 -0.721609 -2.348613
C 3.135974 -1.906059 -2.649519
C 2.356004 -2.975770 -2.489771
C 1.060488 -2.493870 -2.055969
C -0.028810 -3.342931 -1.759992
C -5.174285 -0.686305 -0.056648
C -6.155484 -0.555681 -1.009937
C -7.514196 -0.816930 -0.687392
C -7.786936 -1.185857 0.609560
C -6.842324 -1.298830 1.582624
C -5.503569 -1.035815 1.259509
C -4.442543 -1.634218 3.437875
C -3.105451 -1.660696 4.110548
C 4.562870 0.709968 -4.196281
C -0.412974 4.235072 3.259266
C 4.251880 0.791167 -2.868859
C 5.909940 0.928853 -4.611154
C 6.837922 1.168920 -3.690270
H 1.614283 4.455722 2.818787
C 6.555204 1.237763 -2.329138
C 5.234742 1.045356 -1.916193
C 5.580657 1.393100 0.502336
H -1.201259 5.195341 4.937039
C 4.912111 1.264241 1.883361
H 0.317105 5.613693 4.647246
C 4.991937 2.602262 2.602797
C 3.393746 0.914731 1.798456
C 5.597287 0.160991 2.657653
C 0.157452 -4.815108 -1.940689
C -0.245006 -5.417041 -3.117211
C -0.065397 -6.786837 -3.327644
C 0.523323 -7.508803 -2.337863
C 0.960705 -6.963357 -1.164375
C 0.767791 -5.575909 -0.942906
C 1.985143 -5.297008 1.209026
C 2.397580 -4.289079 2.234745
C -3.230180 -2.356185 5.476853
C -2.144209 -2.504461 3.250219
C -2.558308 -0.250301 4.289987
C -1.440739 3.082397 3.266238
C 0.975672 3.712573 2.830805
C 3.297290 -3.237019 1.582842
C 3.150941 -4.956324 3.374262