62
H36 C18 N2 O6
H -3.073989 1.805067 -1.678191
H -2.895598 3.364154 -1.374960
H -0.602245 3.193762 -1.993170
H -1.586826 2.838069 -3.207659
H 3.536767 -1.281158 -0.976523
H -0.010468 1.517531 -4.253237
N -2.047726 2.177161 0.018216
H 3.438995 -2.863674 -1.188627
N 2.092487 -2.150157 0.133947
H 1.070170 1.837016 -3.110933
H -0.897276 3.830602 0.008419
H 1.576182 -0.203428 -4.207559
H -2.224916 3.988215 0.882818
H 0.157631 -0.795541 -3.748582
H -1.242051 2.552662 2.534462
H 1.425236 -2.535669 -2.440557
H -0.458160 3.939227 2.351253
H 2.692841 -1.834932 -3.130729
H 1.559029 3.093657 3.083906
H 0.833459 1.700702 3.408526
C 2.903822 -2.035994 -1.083744
C -1.485280 3.369053 0.658129
C -2.431438 2.489830 -1.363120
H 3.190277 1.442984 3.076807
C -0.696072 3.088332 1.907201
C -1.275328 2.543078 -2.315752
O 0.488684 2.374603 1.568123
H 2.998164 1.937121 1.562083
C 0.344427 1.218280 -3.379381
C 1.318545 2.209322 2.712286
O 2.210842 0.153330 1.928198
H 3.838659 -0.228987 0.846826
C 0.884403 -0.171480 -3.500504
O -2.676211 -0.601081 0.626251
C 2.557161 1.471738 2.315298
H 3.987890 -0.612369 2.398206
C 2.097633 -1.816402 -2.340477
O -0.821803 -2.682206 0.325884
C 3.368325 -0.617907 1.626761
H 2.454415 -2.388706 2.100791
O -0.689382 1.242135 -2.409696
C 2.943617 -2.027049 1.319885
H 3.752895 -2.582527 1.188687
C -3.215158 1.702832 0.771611
H -2.984793 1.687923 1.734717
O 1.447535 -0.556779 -2.254382
C -3.702302 0.340122 0.373169
H -3.953936 2.350322 0.650502
H -3.936783 0.333306 -0.589478
C -3.084623 -1.928008 0.322787
H -4.511408 0.105407 0.892608
C -2.104331 -2.870489 0.918269
H -3.986527 -2.096910 0.695110
C 0.162949 -3.463240 0.988688
H -3.123732 -2.054312 -0.657601
C 1.416145 -3.456638 0.157431
H -2.405023 -3.800830 0.770950
H -2.044810 -2.716710 1.893646
H 0.348029 -3.085183 1.883347
H -0.161414 -4.390812 1.102779
H 1.186810 -3.715634 -0.770743
H 2.041028 -4.135224 0.515215