63
H22 Pd1 C34 Br2 N4
H 0.433746 -0.858075 5.144680
H 3.130036 0.686143 -6.839550
H 1.396190 4.180535 -5.998644
H -3.011119 -3.866913 2.416807
H 0.755359 3.392506 -3.923883
H -3.787712 -3.915668 0.091943
H 1.015316 4.310878 2.278245
H -2.152828 -1.669984 -4.407241
H 1.946810 6.053099 3.478091
H -0.337086 -0.129745 -5.019791
H 2.807770 4.029297 -7.956563
H 3.635628 2.685071 -8.220411
H 2.098808 2.777604 -8.657956
H 5.015715 3.663142 4.522254
H 3.520485 6.924707 4.949494
H 4.090552 1.939826 3.266110
H 4.222919 5.851117 5.906756
H 5.003919 6.416269 4.629220
Pd -0.121288 -0.342075 0.100131
C 1.172013 0.818477 2.577691
C 1.278048 0.604554 4.013876
C 0.541331 -0.467046 4.285744
C -0.056645 -0.936679 3.088068
C -0.987199 -1.954550 2.951928
C -1.662078 -2.343590 1.808278
C -2.686554 -3.324646 1.707721
C 1.534603 1.532877 -1.635491
C -3.111810 -3.350516 0.446208
C 2.457901 2.617412 -1.550269
C -2.362777 -2.376424 -0.271261
C 2.605772 2.903968 -0.223268
C -2.428904 -2.102803 -1.638285
C 1.818970 1.946791 0.492663
C -1.585078 -1.360543 -2.385766
C 1.797153 1.858237 1.887264
C -1.564305 -1.234180 -3.801940
C 1.552622 1.565711 -4.140380
C -0.575839 -0.396402 -4.139442
C 2.258704 0.756787 -5.013039
C 0.063034 0.028457 -2.904272
C 2.644144 1.249306 -6.249808
C 1.054208 0.986629 -2.846174
C 2.342993 2.533833 -6.644323
C 1.631986 3.293007 -5.752602
C 1.241017 2.827354 -4.513217
C 2.388695 5.212336 3.459364
C 2.448918 2.945757 2.675256
C 3.572015 5.055128 4.153157
C 1.835073 4.174565 2.737463
C 2.756485 3.051226 -7.985995
C 4.127054 6.155582 4.978602
C 4.195065 3.807415 4.064865
C 3.638827 2.774619 3.323041
N -0.563493 -0.571519 -1.848091
H 1.773577 1.127917 4.633452
Br -1.473206 -2.872524 4.547801
N 0.365298 -0.152630 2.031521
Br -3.886677 -2.904165 -2.578686
N 1.168345 1.125927 -0.376091
N -1.453730 -1.771473 0.578534
H 2.885471 3.056200 -2.276228
H 3.127913 3.603443 0.151507
H 2.479070 -0.133725 -4.765809