20
H14 C6
C -0.366484 -1.703651 2.708721
C 0.532968 -1.028923 1.538358
C -0.282006 -0.385314 0.540505
H -0.908794 0.215858 1.017064
H 1.072514 -0.161820 -0.870070
H 0.745872 1.173491 -0.081395
H -0.666290 0.145132 -2.277962
H -1.231021 1.348892 -1.406074
H -0.411794 2.036351 -3.273621
H 0.441832 2.604990 -2.046500
H 1.010206 1.392742 -2.923829
H 0.222029 -2.130837 3.365296
H -0.901788 -1.011949 3.149415
H -0.961752 -2.376964 2.317423
H 1.144692 -0.362682 1.938996
H 1.084728 -1.727698 1.104588
H -0.829378 -1.088333 0.110406
C 0.328323 0.389845 -0.520568
C -0.397078 0.924535 -1.728099
C 0.200133 1.798711 -2.549300