62
H36 C18 N2 O6
C -2.660520 -1.873164 -1.633753
H 2.965435 0.941739 -3.336302
C -2.055697 -0.202611 -3.069164
H 1.779544 -0.140372 -3.275015
C -0.917543 0.573962 -3.629128
H 1.056197 2.026679 -4.088948
C -2.247053 -2.812408 -0.699183
H 1.386656 2.630680 -2.643739
H -0.219176 -1.110736 4.561851
H 0.974616 -0.246462 3.941725
H -0.974313 1.063388 4.315341
H -1.767811 0.155263 3.257393
H -2.089269 2.292609 2.142349
H -1.071623 3.052209 3.121682
H 0.358232 3.444032 1.237294
H -1.052352 4.197973 1.119392
H -1.178658 4.264456 -1.155759
H 0.309753 3.676014 -1.265237
H -0.939266 3.255900 -3.236832
H -1.998239 2.419916 -2.378446
H -0.712859 -3.239595 3.336516
H -1.751064 -2.064125 3.030058
H -1.956375 -3.870472 1.499984
N 0.170811 -1.557726 2.627960
H -0.464840 -3.577666 0.984244
H -3.002943 -3.410752 -0.477115
N -0.252600 1.448138 -2.661513
H -1.523374 -3.366902 -1.089332
H -3.082411 -2.337128 -2.401030
H -3.337307 -1.279064 -1.225956
H -2.506684 -0.710426 -3.790908
H -2.715427 0.411292 -2.659822
O 2.453218 -1.135914 0.799962
H -1.247678 1.125627 -4.380574
O 2.306785 0.576791 -1.470475
H -0.249311 -0.059744 -3.993997
O -0.378919 1.314324 2.437932
O -0.884465 2.621486 -0.066695
O -1.774140 -2.181531 0.493014
O -1.550228 -1.085274 -2.103397
H 4.400693 -0.878754 0.473850
H 4.233057 0.138289 -1.579800
H 3.467699 -1.909942 2.319190
H 2.650167 -0.581704 2.695167
C 1.457011 -2.273475 2.652789
C 2.617228 -1.424760 2.178822
C 3.557668 -0.403474 0.268169
C 3.410133 -0.257778 -1.196845
C 2.110467 0.712586 -2.894064
C 1.092339 1.814500 -3.122041
C 0.075554 -0.618482 3.755411
C -0.876701 0.514552 3.497683
H 1.638058 -2.577597 3.578456
C -1.136057 2.514689 2.292482
H 1.390455 -3.076924 2.078577
C -0.617297 3.309652 1.138463
C -0.647799 3.431301 -1.215847
C -0.946123 -2.528089 2.689022
C -1.041933 2.666044 -2.447184
H 3.596859 0.490505 0.689752
C -1.277248 -3.161796 1.370484
H 3.270111 -1.146099 -1.610526