95
Mn1 H36 C50 N8
H -2.625443 -2.171842 3.825034
H -2.357521 2.609460 -0.244523
H -1.033695 2.739664 -5.020567
H -2.279730 0.327536 -4.582663
H -4.018712 -0.624160 -3.110113
H 0.006091 -2.084592 -2.671129
C 6.884778 1.573198 1.219487
H 1.688826 -0.263080 -4.984508
C 7.072769 2.936983 1.143386
H 5.485901 0.095317 1.055100
C 6.020191 3.766529 0.853383
H -3.961262 -3.346361 -1.238194
H 1.852111 -0.142272 -7.309490
C 0.575482 -3.863150 -1.816756
H 4.123898 2.455094 -1.880829
H 0.773936 2.770537 2.145938
H 0.609571 1.434940 -8.482273
H 4.017739 3.821564 0.482505
H -0.775985 2.919533 -7.343022
H -0.424005 4.922257 2.352631
H -6.041952 -4.312823 -1.604159
N 0.993873 -4.091074 -0.545522
C 1.071927 -0.458922 2.797773
C -1.076913 0.518412 -2.824589
C 2.544049 0.646468 1.570269
C 0.129722 1.025134 -3.290148
C 1.235809 1.296683 -2.485393
C 2.593451 1.467424 -0.750360
C -0.092304 -1.079471 3.244611
C -1.262309 -1.182561 2.501879
C -2.629128 -0.359994 -1.511452
C 3.108267 0.474653 2.875435
C 3.167955 1.307689 0.511261
C 0.963126 -2.922460 0.101309
C 4.541271 1.868506 0.734375
C 0.287283 1.203392 -4.770171
C -3.367074 -1.738276 1.951270
C -2.718400 -1.086988 0.842703
C 2.434057 1.938172 -2.942617
C -2.477172 -1.795995 2.965163
C -1.711321 2.912553 0.383127
C -3.280860 -0.929670 -0.418878
C -0.439334 2.155760 -5.479952
C -2.209622 0.195453 -3.644881
H 0.271211 -3.187969 8.022383
C -3.156160 -0.328450 -2.842008
C 0.314550 -2.536949 -1.895266
C 1.163411 0.366463 -5.462992
C 5.615414 1.034932 1.009530
H 1.144731 -4.306112 6.173668
C 1.272167 0.448344 -6.842566
H -4.257740 -2.068484 1.965806
C 3.260603 2.056832 -1.880764
C -0.018759 3.009468 1.678604
C 0.539807 1.385275 -7.536455
C 4.748802 3.240345 0.662514
C -0.297093 2.253748 -6.862417
C -0.670104 4.189356 1.801411
C -5.983583 -3.409450 -1.316020
N 1.285579 0.073840 1.540207
H -7.990336 -3.063134 -1.274618
N -1.360638 0.179479 -1.510424
H -5.744886 0.119478 -0.169353
N -1.438689 -0.735035 1.205376
N 0.563277 -1.943112 -0.674875
N 1.348018 1.022449 -1.136856
N -0.673791 2.208110 0.776835
N -1.743932 4.114993 0.979751
H -7.842060 -0.851010 -0.560029
H 2.331906 -0.496641 4.524458
H -1.058551 -0.228180 5.601941
C 0.704640 -3.471196 6.058825
H -0.863569 -1.177191 7.736035
C -4.643300 -1.518138 -0.660592
C -4.748916 -2.836284 -1.093752
C -7.139837 -2.669838 -1.118541
C -5.801491 -0.782553 -0.463182
C -0.049413 -1.698947 4.610095
C -7.051523 -1.359745 -0.694427
C 2.218478 -0.219589 3.622120
C 0.594720 -2.915480 4.788970
C -0.601632 -1.053699 5.714278
C 0.177586 -2.814807 7.154160
C -0.485039 -1.618811 6.984827
H 1.240404 -4.865854 -0.209221
H 0.963438 -3.370523 4.040336
H 7.618121 1.001375 1.413877
H 7.936099 3.303433 1.292761
H 6.160723 4.703460 0.782940
H 0.484063 -4.504773 -2.511922
Mn -0.044554 0.143237 0.028762
H -2.351574 4.739703 0.858793
H 3.955359 0.791975 3.165353
H 1.203320 -2.813465 1.014598
H 2.613068 2.226902 -3.830446