111
Zn1 H40 C53 N8 Cl4 O5
H 0.906897 4.916516 -0.816329
H 1.792389 6.198085 -0.962585
H -0.189547 -3.438737 3.219765
H -1.090198 -2.431023 2.599784
H -0.438395 -3.546131 1.691186
C 1.201219 1.816409 2.327720
C 0.754052 2.686301 3.397045
C -0.549555 2.414236 3.623955
C -0.931037 1.372514 2.696812
C -2.216959 0.805116 2.621343
C -2.638862 -0.147111 1.684755
H 4.357917 -1.247899 -6.005617
C -3.966469 -0.719879 1.629123
H 5.749947 -3.010951 -5.603984
H 5.756263 -4.113529 -3.584205
C -3.957627 -1.630938 0.620801
C -2.635073 -1.627358 0.066789
C -2.192958 -2.448922 -0.997307
H 5.287621 -5.008479 1.072098
C -0.918405 -2.429233 -1.568760
C -0.509133 -3.211420 -2.706322
H 5.112039 2.936887 5.314814
C 0.778052 -2.923246 -2.956633
H 5.952056 4.827021 4.294220
C 1.194903 -1.942381 -1.977896
H 5.256042 5.372941 2.138021
C 2.487141 -1.396461 -1.891358
H -4.441427 -6.372383 -1.153132
C 2.905255 -0.476452 -0.921620
C 2.914097 0.962627 0.741046
C 2.495983 1.764502 1.816939
C -3.174452 1.197104 3.706480
C -3.041818 0.627916 4.965163
C -3.891941 0.951888 6.008294
C -4.905015 1.864737 5.803606
C -5.069229 2.460773 4.569116
C -4.193842 2.131432 3.508728
C -5.249865 3.579461 1.784750
C -4.979543 4.238144 0.433753
C -3.175716 -3.408309 -1.591856
C -3.430879 -4.627231 -0.995626
C -4.281002 -5.556189 -1.569901
C -4.892384 -5.248326 -2.782495
C -4.672589 -4.038353 -3.402743
C -3.823729 -3.107605 -2.803972
C -3.864151 -1.355293 -4.577591
C -3.408142 0.058728 -4.899040
C 3.466109 -1.845726 -2.935761
C 4.246757 0.064097 -0.820715
C 4.249284 0.935779 0.195726
C 3.500215 -1.210311 -4.168957
C 3.515373 2.632604 2.502398
C 3.948646 2.339060 3.781206
C 4.011805 3.799619 1.901189
C 2.425245 4.977373 0.538243
C 1.821443 5.240488 -0.819960
C -0.274181 -2.944725 2.431133
N 0.137618 1.035118 1.913010
N -1.849372 -0.712182 0.718958
N 0.143934 -1.659576 -1.146646
N 2.122081 0.083786 0.051827
N -4.274686 2.761477 2.243224
C 4.350338 -1.664946 -5.174029
N -3.555934 -1.833197 -3.361199
C 5.175198 -2.726357 -4.927993
N 4.215178 -3.551501 -1.454698
C 5.189093 -3.390410 -3.728406
C 4.312443 -2.935775 -2.716222
N 3.516636 4.193397 0.611629
C 4.932666 -4.530576 -0.899785
Cl -3.762970 3.465623 -0.614646
Cl -2.598314 0.923428 -3.568044
C 4.504447 -4.990580 0.500384
Cl 3.259452 -3.975170 1.271529
Cl 2.674219 4.495532 -2.176026
C 4.844243 3.153465 4.449946
C 5.343201 4.286471 3.846692
C 4.923824 4.612233 2.557550
O -6.289466 3.847946 2.371151
O -4.452795 -1.979968 -5.448506
O 1.894707 5.489284 1.506171
O 0.716156 -2.019167 1.994453
Zn 0.206966 -0.504912 0.560061
H 1.151955 -1.639887 2.695997
H -3.630462 2.548479 1.644551
H -2.838445 -1.305176 -2.998179
H 3.504005 -3.172042 -0.924677
O 5.882581 -5.081865 -1.416559
H 3.905697 3.790669 -0.082035
H 1.270694 3.316346 3.844683
H -1.097777 2.820543 4.256370
H -4.685221 -0.505091 2.178041
H -4.673853 -2.155379 0.342676
H -1.040934 -3.809246 -3.181574
H 1.303537 -3.284806 -3.632406
H -2.362225 0.010400 5.112723
H -3.779518 0.556320 6.841893
H -5.481028 2.077735 6.500447
H -5.752612 3.076499 4.435562
H -5.815771 4.275732 -0.055366
H -4.699116 5.152783 0.593303
H -3.021607 -4.827699 -0.184643
H -5.459553 -5.869421 -3.179665
H -5.085651 -3.843254 -4.212026
H -2.799287 0.019350 -5.654597
H -4.181211 0.576009 -5.174687
H 2.951993 -0.474663 -4.325076
H 4.167177 -5.898060 0.438119
H 4.970562 -0.154270 -1.361187
H 3.630323 1.572983 4.203390
H 4.978141 1.431581 0.494165