97
Mn1 B1 H36 C48 N10 O1
Mn 0.852209 0.434906 0.031827
B -4.620861 -1.443779 -1.043267
H 2.544995 2.225791 0.991979
H 3.447263 1.244880 0.580542
H 3.615070 -3.362183 -1.998741
H 3.441183 -3.968418 0.389584
H 0.381740 -2.252628 4.357077
H -1.309708 -0.462869 4.569545
H 1.377640 3.161676 -4.276468
H 2.375971 0.968296 -4.818070
H 4.152539 -2.582279 3.148261
H 3.593182 -6.119989 4.993363
H 1.399528 -6.171446 4.224503
H 0.624939 -4.474953 2.815413
H -0.993549 2.386596 5.063055
H 4.939288 -4.318973 4.497715
H -2.637574 2.934941 6.639633
H -4.878652 2.822377 6.061785
H -5.486649 2.019961 3.984079
H -3.865728 1.452319 2.408160
H 1.123497 -1.670514 -4.880919
H 1.900518 -2.434338 -6.935612
H 4.186587 -2.760772 -7.261425
H -0.287057 -2.463283 -1.465336
H -2.570694 0.421559 -0.185637
H 5.668885 -2.326599 -5.522824
H -5.124283 -4.188721 -0.559573
H 4.907672 -1.527398 -3.485133
H -6.128694 -2.844391 2.922857
H -4.955260 -1.982476 -1.990970
H -5.020923 -0.456436 -0.940480
C 3.172205 -2.859828 -1.325124
C 3.068967 -3.198483 -0.024081
C 2.291338 -2.179944 0.620306
C 1.824153 -2.247804 1.938536
C 0.879204 -1.370935 2.479451
C 0.214663 -1.558916 3.728884
C -0.694172 -0.570769 3.854435
C -0.565155 0.286643 2.714596
C -1.233100 1.488982 2.550832
C -0.994522 2.370676 1.496083
C -0.250212 3.242239 -0.396314
C 0.302701 3.375547 -1.675445
C 0.984509 2.350093 -2.327547
H -2.023497 4.147411 2.063171
C 1.446708 2.415219 -3.692770
H -1.146765 5.142794 -0.027359
C 1.993663 1.219312 -3.985977
C 1.896383 0.390684 -2.813817
C 2.416950 -0.900902 -2.713306
C 2.498908 -1.612624 -1.510206
C 2.317482 -3.365238 2.807864
C 3.588318 -3.321982 3.338029
C 4.055260 -4.355958 4.152631
C 3.259999 -5.410839 4.455402
C 1.972261 -5.452969 3.984804
C 1.512615 -4.434270 3.153375
C -2.261467 1.879256 3.569521
C -1.911625 2.314073 4.830675
C -2.890501 2.648708 5.770965
H -1.873929 4.306608 -2.881037
C -4.211071 2.564125 5.437263
H -2.224136 6.249132 -4.096268
C -4.567357 2.106795 4.204033
H -0.524176 7.820197 -4.299003
C -3.601858 1.765567 3.265803
H 1.555175 7.377983 -3.386987
H 1.947941 5.395257 -2.245864
C 2.934356 -1.513729 -3.973681
C 2.056165 -1.794817 -5.011742
C 2.514595 -2.253272 -6.231979
C 3.863133 -2.447363 -6.424653
C 4.288731 -1.713771 -4.180850
C -1.056781 -1.954335 -1.241493
C -2.262197 -0.400155 -0.550604
C 4.738649 -2.183482 -5.393589
C -5.309114 -3.610305 0.170713
C -5.840504 -2.879768 2.019732
N 1.959372 -1.202732 -0.303568
N 0.394144 -0.232435 1.866077
N -0.220299 2.093288 0.372219
N 1.276226 1.106427 -1.804998
N -0.978471 -0.703915 -0.720522
N -2.279342 -2.408448 -1.411157
C -1.473867 3.712433 1.423075
N -3.063902 -1.386533 -0.952454
N -5.165748 -2.296850 0.118144
C -1.003156 4.253220 0.275652
N -5.512671 -1.781791 1.341170
N -5.738117 -4.035634 1.352688
O 2.669391 1.405203 0.858794
C 0.074094 4.649926 -2.418702
C -1.162573 4.927476 -2.985768
C -1.376588 6.086880 -3.698278
C -0.370960 7.007328 -3.832387
C 0.853546 6.745376 -3.289903
C 1.084585 5.570535 -2.599066