10
H6 C2 S1 O1
O -0.799959 -0.905972 -0.789025
H 1.954601 -0.242488 -1.046117
H 2.028351 0.867612 0.104367
H 1.117498 1.113466 -1.189351
H -1.053272 1.653486 0.043525
C 1.447430 0.439246 -0.557530
H -0.097889 1.691062 1.327684
C -0.735936 1.146747 0.821334
H -1.497313 0.916997 1.394072
S 0.055571 -0.330631 0.274949