115
Fe1 H52 C56 N4 O2
H -3.570187 -3.715678 0.174401
H -2.011783 -4.482559 -1.605104
H 2.617168 -2.627640 -3.637526
H 3.872880 -0.489520 -3.408802
H 0.341025 -5.408072 -1.358361
H 0.405793 -7.310678 -2.692480
H 0.508894 -4.996409 -6.008636
H -7.350541 -1.746894 1.798739
H 0.403150 -3.087964 -4.685797
H -0.290796 -7.721369 -5.818840
H 0.703199 -8.380225 -4.752312
H -7.661164 -4.806635 3.029265
H 1.290079 -7.524782 -5.971168
H -7.752368 -3.913237 4.355058
H -5.408814 -0.704597 1.047183
H -8.485969 -3.435396 3.015426
H -5.139166 -4.272348 4.032843
H -3.193474 -3.246595 3.269966
H 2.293326 -2.691871 1.941998
H 2.260281 -2.251012 0.394603
H 4.340798 -1.793608 2.001858
H 4.112126 -1.016994 0.611068
H -3.477661 -0.853496 -1.675048
H -3.989198 -0.164471 -3.041540
H -1.477775 -0.710436 -2.794438
H 1.904717 -0.647178 3.550788
C -2.218512 -2.074765 0.459564
C -2.764549 -3.289416 -0.090863
C -1.910268 -3.710714 -1.061392
C -0.816081 -2.760579 -1.109463
C 0.272820 -2.822864 -2.012730
C 1.255976 -1.820565 -2.170330
C 2.396163 -1.900270 -3.066954
C 3.087465 -0.736128 -2.934663
C -2.401318 -0.056348 1.937245
C -2.837512 -1.305840 1.467252
C 0.360455 -4.036834 -2.872753
C 0.368386 -5.315716 -2.304370
C 0.415442 -6.453387 -3.101560
C 0.476906 -6.358305 -4.492769
C 0.471090 -5.085067 -5.064111
C 0.410420 -3.943698 -4.272518
C 0.551456 -7.604779 -5.331680
C -4.092563 -1.888787 2.046733
C -7.696853 -3.890367 3.376043
Fe 0.000000 0.000000 0.000000
C -5.343913 -1.444034 1.640527
H 3.570187 3.715678 -0.174401
C -6.506174 -2.067563 2.092258
H 2.011783 4.482559 1.605104
C -6.453037 -3.146258 2.959975
H -2.617168 2.627640 3.637526
C -5.200365 -3.558992 3.408410
H -3.872880 0.489520 3.408802
C -4.036651 -2.943249 2.955436
H -0.341025 5.408072 1.358361
H -0.405793 7.310678 2.692480
C 2.367215 -1.922946 1.321820
H -0.508894 4.996409 6.008636
C 3.711620 -1.225161 1.490926
C -3.392405 -0.057613 -2.258248
H -0.403150 3.087964 4.685797
H 0.290796 7.721369 5.818840
C 1.947146 -0.155031 2.692928
N -1.036028 -1.773949 -0.176282
H -0.703199 8.380225 4.752312
N 1.289418 -0.622361 -1.496581
H -1.290079 7.524782 5.971168
H 5.408814 0.704597 -1.047183
O 1.370312 -0.930574 1.625549
H 5.139166 4.272348 -4.032843
H 3.193474 3.246595 -3.269966
H 7.350541 1.746894 -1.798739
H -2.293326 2.691871 -1.941998
H -2.260281 2.251012 -0.394603
H -4.340798 1.793608 -2.001858
H 7.661164 4.806635 -3.029265
H -4.112126 1.016994 -0.611068
H 7.752368 3.913237 -4.355058
H 3.477661 0.853496 1.675048
H 8.485969 3.435396 -3.015426
H 3.989198 0.164471 3.041540
H 1.477775 0.710436 2.794438
H -1.904717 0.647178 -3.550788
C 2.218512 2.074765 -0.459564
C 2.764549 3.289416 0.090863
C 1.910268 3.710714 1.061392
C 0.816081 2.760579 1.109463
C -0.272820 2.822864 2.012730
C -1.255976 1.820565 2.170330
C -2.396163 1.900270 3.066954
C -3.087465 0.736128 2.934663
C 2.401318 0.056348 -1.937245
C 2.837512 1.305840 -1.467252
C -0.360455 4.036834 2.872753
C -0.368386 5.315716 2.304370
C -0.415442 6.453387 3.101560
C -0.476906 6.358305 4.492769
C -0.471090 5.085067 5.064111
C -0.410420 3.943698 4.272518
C -0.551456 7.604779 5.331680
C 4.092563 1.888787 -2.046733
C 5.343913 1.444034 -1.640527
C 6.506174 2.067563 -2.092258
C 6.453037 3.146258 -2.959975
C 5.200365 3.558992 -3.408410
C 4.036651 2.943249 -2.955436
C -2.367215 1.922946 -1.321820
C -3.711620 1.225161 -1.490926
C 3.392405 0.057613 2.258248
C -1.947146 0.155031 -2.692928
N 1.036028 1.773949 0.176282
C 7.696853 3.890367 -3.376043
N -1.289418 0.622361 1.496581
O -1.370312 0.930574 -1.625549