86
Fe1 H44 C36 N4 Cl1
Fe 0.041822 -0.217557 0.330106
H 2.808178 5.522079 0.291128
H -1.153467 5.668296 1.294237
H -0.744290 6.771565 2.380142
H 4.294518 5.628418 0.873686
H 0.311185 6.312977 1.268760
H -2.025318 3.213632 2.186260
H 3.869436 4.361210 -0.006208
H -4.272178 3.306679 2.023930
H -5.574894 2.440458 1.689699
H -5.470792 2.777199 3.996190
H -5.249576 1.217557 3.709175
H -6.283363 0.397859 0.865405
H -5.771530 -0.672179 -0.209240
H -5.733938 -1.075382 2.622962
H -6.725795 -1.813110 1.605967
H -5.158487 -2.136559 1.571897
H -3.871676 -1.965973 -0.617198
H -3.971440 -3.410414 -2.431323
H -3.082238 -4.515898 -3.167788
H -3.812396 -4.595653 -0.409883
H -4.392184 -5.561567 -1.546424
H -2.859577 -5.678983 -1.102823
H 0.584452 -4.981132 -2.957211
H -0.903334 -5.191595 -3.506446
H 0.919890 -3.257551 -4.567463
H 0.565656 -4.644391 -5.281263
H -0.556328 -3.512322 -5.132989
H 1.931989 -3.049303 -2.429455
H 5.471444 -2.415699 -1.812312
H 4.155716 -3.153427 -2.340245
H 5.430960 -0.980120 -3.687368
H 5.471444 -2.506530 -4.171688
H 4.094990 -1.689048 -4.209477
C 1.867504 2.191668 0.989549
H 5.731698 0.659276 0.153086
C 1.889192 3.448022 1.700297
H 6.223289 -0.348731 -0.987534
C 3.118025 4.283449 1.924152
H 5.164923 2.258795 -1.509731
H 6.714880 1.873315 -1.616591
C 0.597465 3.717636 2.046984
H 5.660852 1.250788 -2.647611
H 3.834736 1.966362 0.635003
C 0.076089 4.919490 2.771366
C -0.421864 6.015006 1.846620
C -0.207732 2.628324 1.553667
C -1.590694 2.515117 1.709211
C -2.395601 1.487171 1.237749
C 3.562915 5.014531 0.656363
C -3.834373 1.410075 1.403366
C -4.683957 2.410550 2.121454
C -4.866424 2.113465 3.600941
C -4.234296 0.261390 0.785478
C -5.619715 -0.318380 0.702402
C -5.827918 -1.436049 1.715623
C -3.047827 -0.354269 0.242709
C -3.039730 -1.521120 -0.507521
C -1.935386 -2.101777 -1.114418
C -1.975002 -3.268406 -1.967593
C -3.221908 -4.044904 -2.307908
C -3.605638 -5.060443 -1.248178
C -0.694263 -3.483743 -2.400867
C -0.193129 -4.517892 -3.359750
C 0.221542 -3.930589 -4.705603
C 0.125393 -2.460893 -1.786062
C 1.506474 -2.372942 -1.916136
C 2.330756 -1.390633 -1.366483
C 3.000766 0.405170 -0.294788
C 3.770251 -1.309771 -1.537294
C 2.992814 1.561609 0.459388
C 4.620992 -2.281224 -2.300588
N 0.580259 1.701843 0.902162
C 4.932140 -1.823301 -3.718372
N -1.932349 0.398967 0.532083
C 4.184633 -0.196976 -0.876697
N -0.645682 -1.616826 -1.025743
C 5.569473 0.364185 -0.777499
N 1.876469 -0.331672 -0.616527
C 5.797774 1.542113 -1.722709
Cl 0.440445 -1.475040 2.129552
H 2.933968 4.948291 2.634259
H -0.666213 4.640350 3.363855
H 0.796993 5.287247 3.342782
H 3.853532 3.701020 2.238079
H -3.997465 2.154671 4.051981