62
H36 C18 N2 O6
N -1.237453 2.305710 -1.544673
H -0.914287 3.026512 -3.397045
H 0.418550 2.899584 -2.524173
H -1.394347 4.309211 -1.373513
H -1.917742 3.520796 -0.085595
H 0.069457 4.649718 0.434571
H 0.838224 3.886933 -0.749988
O 0.392654 2.720421 0.799405
H 2.360341 2.934977 1.015726
C -1.080940 -3.149852 1.645746
H 1.497590 3.894256 1.968282
C 0.163427 -2.869147 2.453170
H -3.483972 -2.716956 1.010750
H -1.715265 -3.689659 2.180681
H -0.846724 -3.661589 0.831408
H 0.507772 -3.722612 2.817935
H -0.075842 -2.288576 3.219390
H 2.551621 -3.716510 1.348209
C -3.356588 1.288826 -0.758180
C -3.553454 -0.785828 0.320578
C 1.797110 -0.308751 3.171717
H -2.632773 1.391100 -2.681752
C -2.877867 -2.100869 0.527806
H -4.311117 1.173859 -0.994856
C 2.221588 -1.637950 2.591263
H -3.675430 -0.329743 1.190714
C 1.887311 -3.213926 0.812481
H -4.445788 -0.926546 -0.084983
C 2.581395 -2.602355 -0.378875
H -2.658386 -2.507037 -0.348862
C 2.130012 -1.585471 -2.462976
C 1.060801 -0.889200 -3.250041
N 1.230067 -2.218033 1.678050
C -0.105231 1.136269 -3.442434
O -1.684094 -1.906207 1.282512
H 1.208225 -3.859303 0.491901
H 3.035749 -3.307657 -0.903355
H 3.263814 -1.951730 -0.074367
H 2.910090 -0.986349 -2.349102
H 2.429319 -2.397196 -2.944628
H 0.259447 -1.467209 -3.311599
H 2.422448 -0.039275 3.891018
H 1.383718 -0.709305 -4.168043
H 0.890601 -0.385884 3.562152
H 0.360481 1.314211 -4.297236
H 2.385998 -2.273930 3.331994
H -0.942850 0.649063 -3.642177
C -2.625094 1.978750 -1.884613
H 3.074154 -1.517247 2.103699
O -2.754225 0.021138 -0.539292
H -3.104883 2.812932 -2.117740
C 1.648813 1.977407 2.683497
O 1.605498 -1.942942 -1.190767
O 0.720767 0.341874 -2.606466
H -3.303594 1.835346 0.065465
O 1.798200 0.670543 2.135474
C -0.429298 2.445452 -2.757922
C -1.200887 3.550331 -0.767955
C 0.115598 3.804186 -0.078035
C 1.552005 2.982819 1.584960
H 0.831535 2.013533 3.241498
H 2.425286 2.188058 3.259829