77
Zn1 H24 C44 N4 Cl4
H 6.261829 4.483424 0.988601
C 0.508051 2.076147 3.710220
C 1.762344 2.178684 3.230304
C 1.806403 1.483500 1.978079
H 4.332888 -0.171209 -2.824326
C 2.931274 1.412006 1.144784
C 2.971202 0.804307 -0.122189
C 4.124987 0.725287 -0.966422
C 3.773895 0.037628 -2.086838
H 3.588023 -2.740288 -3.398883
H 4.697749 -3.223813 -5.400841
H 4.005203 -2.189032 -7.395217
C 4.199336 2.045104 1.646476
H 1.175814 -0.132640 -5.358480
C 4.843693 1.556875 2.783724
C 6.008492 2.172099 3.223894
C 0.258844 -1.317935 -2.745736
C 6.538572 3.245450 2.573462
C 5.898346 3.736500 1.449603
C 4.736300 3.142912 0.983925
C 2.377788 -0.312316 -1.929789
C 1.613646 -0.999034 -2.879004
N 0.556240 0.970813 1.689815
N 1.905535 0.161802 -0.724910
C 2.285540 -1.374377 -4.166200
H -4.332888 0.171209 2.824326
C 3.323671 -2.304739 -4.200066
C 3.980420 -2.601063 -5.394541
C 3.570124 -1.989602 -6.574116
C 2.537500 -1.086520 -6.531460
H -3.588023 2.740288 3.398883
C 1.886259 -0.762916 -5.358098
H -4.697749 3.223813 5.400841
H -4.005203 2.189032 7.395217
H -1.175814 0.132640 5.358480
Cl -6.849185 -1.690456 -4.583052
C -0.258844 1.317935 2.745736
H -0.185872 -2.434557 -4.530749
H -2.486558 -2.630225 -3.648204
H -4.982753 -1.087461 0.778463
H -4.489847 -0.809011 -3.250594
H -7.335758 -3.653718 -2.887640
H -4.303975 -3.489093 -0.212302
C -2.377788 0.312316 1.929789
C -1.613646 0.999034 2.879004
H -6.261829 -4.483424 -0.988601
C -0.508051 -2.076147 -3.710220
C -1.762344 -2.178684 -3.230304
C -1.806403 -1.483500 -1.978079
C -2.285540 1.374377 4.166200
C -2.931274 -1.412006 -1.144784
C -3.323671 2.304740 4.200066
C -2.971202 -0.804307 0.122189
C -3.980420 2.601063 5.394541
C -4.124987 -0.725287 0.966422
C -3.570124 1.989602 6.574116
C -3.773895 -0.037628 2.086838
C -2.537500 1.086520 6.531460
C -1.886259 0.762916 5.358098
C -4.199336 -2.045104 -1.646476
C -4.843693 -1.556875 -2.783724
C -6.008492 -2.172099 -3.223894
C -6.538572 -3.245449 -2.573462
Cl 6.849185 1.690456 4.583052
C -5.898346 -3.736500 -1.449603
C -4.736300 -3.142912 -0.983925
N -0.556240 -0.970813 -1.689815
N -1.905535 -0.161802 0.724910
Cl -2.065385 0.259260 7.996472
Zn 0.000000 0.000000 0.000000
H 0.185872 2.434557 4.530749
H 2.486558 2.630225 3.648204
H 4.982753 1.087461 -0.778463
H 4.489847 0.809011 3.250594
H 7.335758 3.653718 2.887640
H 4.303975 3.489093 0.212302
Cl 2.065385 -0.259260 -7.996472