12
H6 C6
H -1.006540 -1.788085 -1.034281
C -1.115582 0.187799 -0.719471
C 1.115582 -0.187799 0.719471
C -0.523401 1.242669 -0.122432
C 0.588826 1.052872 0.602921
H -0.890788 2.113736 -0.215337
C -0.588826 -1.052872 -0.602921
H 0.890788 -2.113736 0.215337
H 1.909072 -0.315662 1.225417
H -1.909072 0.315662 -1.225417
H 1.006540 1.788085 1.034281
C 0.523401 -1.242669 0.122432