92
Zn1 H37 C48 N5 O1
Zn 0.104446 -0.073444 -0.113092
H 2.388234 -4.648798 -0.909559
H 1.746510 -3.905017 -3.190361
H -0.588712 0.529244 -5.182836
H -2.116113 2.202750 -4.167152
H -3.774736 3.271047 0.773371
H -3.024194 2.620831 3.055349
H 2.204466 -2.407980 3.953511
H 2.857740 -2.005296 -4.471615
H 1.594828 -3.015559 -8.188642
H -0.603215 -2.501545 -7.577266
H -1.084979 -1.806323 -5.403699
H -6.351770 2.882576 -3.188785
H -4.612652 1.511082 -2.453784
H 1.153301 -4.636954 2.967701
H 3.554857 2.189722 2.117809
H 2.106367 2.226438 2.799151
H 2.669330 0.859681 2.185334
H -2.435009 4.794140 -1.497835
H 0.241455 3.866782 -0.759138
H -4.178547 6.163265 -2.260249
H -6.136405 5.207483 -3.101954
H 1.440754 3.133661 -1.524459
C 1.594299 -2.776318 -0.226312
C 1.972469 -3.825664 -1.137568
C 1.623859 -3.419072 -2.382746
C 1.027874 -2.104309 -2.250609
C 0.545461 -1.328195 -3.325991
C -0.230141 -0.155793 -3.172192
C -0.774387 0.636310 -4.257514
C -1.597120 1.556798 -3.702109
C -1.537866 1.373814 -2.271759
C -2.290808 2.105159 -1.347051
C -2.204164 1.989446 0.049265
C -3.062819 2.679694 0.987826
C -2.656269 2.320713 2.232482
C -1.553946 1.392053 2.067452
C -0.871755 0.762445 3.124148
H 3.281781 4.364215 1.607842
C 0.080726 -0.260728 2.967076
H 2.099167 5.370925 1.219104
H 1.867727 4.258807 2.347536
C 1.596800 -1.840433 3.494085
C 1.295314 -1.870516 2.079773
H 1.553885 4.688731 -1.162729
C 1.800688 -2.807940 1.165058
C 0.837509 -1.810587 -4.709892
C 2.148160 -2.118285 -5.094409
C 2.426410 -2.585635 -6.372340
C 1.402225 -2.719231 -7.307690
C 0.098376 -2.415442 -6.942294
C -0.185546 -1.984925 -5.651414
C -3.356399 3.016409 -1.883770
C -5.555366 3.271995 -2.847752
C -4.523846 2.455731 -2.403937
H 3.317234 -2.815402 -6.609434
C 2.607311 -3.940666 1.719705
C 2.047598 -4.780262 2.681388
C 2.786822 -5.827359 3.226641
C 2.017165 2.181432 0.728522
C 2.643239 1.833229 2.078635
C 1.214850 3.819408 -0.862647
C -3.230022 4.401997 -1.839104
H 4.606554 -6.740385 3.207885
N 0.998119 -1.750421 -0.922730
C -4.268839 5.218379 -2.294758
N -0.673468 0.345904 -1.975234
C -5.429318 4.652371 -2.795535
N -1.307553 1.206463 0.732413
H 4.316121 -3.608926 0.658435
N 0.402643 -0.870794 1.779364
H 5.554259 -5.364154 1.580082
N 1.827596 3.473573 0.430871
O 1.718634 1.285697 -0.109348
H 0.836577 -0.594718 4.957034
C 2.312898 4.455411 1.497100
H -0.689157 3.123002 4.379130
H -1.250628 3.723474 6.566717
H -2.076799 2.108001 8.044904
H -2.410056 -0.084257 7.313587
H -1.886727 -0.679993 5.119803
H 2.392796 -6.399288 3.874388
C 4.097528 -6.036162 2.825090
C 4.660387 -5.214687 1.865254
C 3.921312 -4.170196 1.315585
C 0.851250 -0.851725 4.041978
C -1.226455 1.157549 4.522969
C -1.041693 2.469351 4.971301
C -1.368563 2.827503 6.274673
C -1.868014 1.869470 7.149761
C -2.061640 0.566906 6.716868
C -1.747080 0.212900 5.412110