11
H5 C5 N1
C -0.931831 0.781914 0.556676
C 1.218041 0.589074 -0.510554
C 0.248117 1.402436 0.094531
H 0.379858 2.337993 0.189430
H 2.037131 0.934658 -0.847521
H -1.978127 -0.947912 0.622479
H 1.443338 -1.413781 -1.060663
C 0.874367 -0.821898 -0.581094
C -1.124670 -0.587054 0.412044
H -1.603904 1.308880 0.974332
N -0.263576 -1.329772 0.033126