97
H39 Pd1 C54 N3
H 3.621149 -5.473262 3.324228
H 2.903522 -4.119871 1.540148
H 0.630076 -4.969913 0.674773
H -0.474963 -5.305051 -1.501599
H -3.109299 -4.940380 -2.090367
H -3.778658 -6.848482 -3.255255
H -3.002724 -7.236266 -5.410442
H -1.519606 -5.757038 -6.378646
H -0.767776 -3.878469 -5.197826
H -2.910832 -2.223325 -5.041860
H -3.150646 0.203534 -5.371776
H 5.298963 0.084117 6.336337
H 4.182288 -0.295962 7.418668
H 5.326120 0.760813 7.786193
Pd -0.519432 -0.210419 -0.917566
C 0.379267 0.095674 0.814368
C 0.957814 -0.893047 1.671126
C 0.924361 -2.279823 1.472030
C 1.403632 -3.188933 2.560766
C 2.889398 -4.878746 3.446769
C 2.465498 -4.067224 2.381858
C 0.356414 -2.871772 0.355732
C 0.295754 -4.286797 0.105865
C -0.318930 -4.470417 -1.075958
C -0.695250 -3.178660 -1.579228
C -1.433481 -2.978348 -2.762993
C -1.875354 -4.211038 -3.518127
C -2.768025 -5.102171 -2.961573
C -3.177156 -6.234705 -3.659990
C -2.713048 -6.469687 -4.930544
C -1.835912 -5.597815 -5.496035
H -1.442259 2.105216 -6.002975
C -1.394935 -4.469133 -4.797205
H -2.441188 3.526662 -7.565434
C -1.798726 -1.746942 -3.274231
H -4.144929 4.973789 -6.916070
C -2.564129 -1.542777 -4.476621
H 2.845123 3.313509 1.601574
C -2.697960 -0.224055 -4.653714
H 3.590130 5.139432 2.836932
C -2.028677 0.430812 -3.552372
H -1.276158 4.480713 -2.840514
H -0.047901 4.891610 -0.750772
H 2.097857 6.793292 3.515922
H -4.857235 5.017447 -4.703641
H -3.851730 3.628102 -3.111754
H 3.633219 2.381287 8.442157
H 5.300180 2.328641 5.272491
H 5.372161 2.973236 6.736148
H 4.222474 3.425222 5.716522
C 4.746300 0.425675 7.070791
N -0.258255 -2.206632 -0.704511
N -1.490881 -0.527092 -2.715612
H 2.920584 -1.567174 3.438019
H 0.046276 -2.539202 3.935384
H 0.766513 -3.899014 5.690219
H 2.545583 -5.376958 5.370283
C -1.922312 1.799612 -3.374052
C -2.550705 2.703584 -4.393071
C -2.135287 2.694596 -5.729804
C -2.730846 3.540787 -6.661196
C -3.740360 4.401102 -6.275739
C -4.160468 4.428067 -4.965097
C -3.566055 3.593433 -4.017336
C -1.263202 2.414673 -2.291380
C -1.017430 3.825846 -2.203907
C -0.357060 4.049272 -1.061225
H 2.482440 1.329648 8.080521
C -0.198191 2.792184 -0.389640
C 2.669667 5.067525 2.612084
C 3.861005 1.562062 6.556855
C 3.034425 2.061558 7.735386
C 4.770210 2.672767 6.021798
C 1.175587 1.144745 2.743371
N -0.727742 1.788055 -1.179286
C 2.972027 1.115212 5.369517
C 1.592958 -0.211215 2.792529
C 2.625579 -0.683746 3.624239
C 3.284406 -0.053276 4.682994
H 0.592793 2.772923 3.761434
H 1.704579 2.638098 5.652982
C 0.773689 -3.135002 3.801754
C 1.199723 -3.943955 4.846001
C 2.258715 -4.818395 4.657148
H -0.162257 6.626365 2.939752
H -0.934348 4.782466 1.726414
H 2.456202 2.794752 7.440903
C 0.576057 1.357897 1.444402
C 1.183906 2.033309 3.834157
C 1.931197 1.984515 5.002362
C 0.377726 2.626541 0.864934
C 0.871476 3.850243 1.563596
C 2.227050 3.977365 1.883389
C 1.788132 6.049825 3.013560
C 0.445218 5.945817 2.676987
C -0.014415 4.849236 1.953486
H 4.071275 -0.493706 4.982101