111
Co1 H38 C58 N6 O8
H -2.850585 -9.903539 2.562774
H 0.992836 -4.967999 0.025374
C 2.147008 -2.055743 -0.330031
H -2.369441 -4.910720 -1.128297
C 2.055743 2.147008 0.330031
C -2.147008 2.055743 -0.330031
C 2.337556 -3.477408 -0.391605
C -2.055743 -2.147008 0.330031
H -3.064427 -7.100687 -0.735846
C 3.477408 2.337556 0.391605
C -2.337556 3.477408 -0.391605
O -2.528677 -9.131609 2.481577
C 1.165819 -4.037979 -0.059544
C -3.477408 -2.337556 0.391605
H -1.533168 -6.921213 2.960300
C 4.037979 1.165819 0.059544
C -1.165819 4.037979 -0.059544
O -3.506048 -9.212945 0.537929
C 0.223579 -2.980417 0.144124
C -4.037979 -1.165819 0.059544
C 2.980417 0.223579 -0.144124
C -0.223579 2.980417 0.144124
C 1.119423 3.172684 0.428313
C -2.980417 -0.223579 -0.144124
C 3.172684 -1.119423 -0.428313
C 1.593502 4.572773 0.704833
C -1.119423 -3.172684 0.428313
C -3.172684 1.119423 -0.428313
C 4.572773 -1.593502 -0.704833
C 2.222998 5.302699 -0.275731
C -1.593502 -4.572774 0.704833
C -4.572774 1.593502 -0.704833
C 5.302699 -2.222998 0.275731
C 2.648581 6.603314 -0.042290
C -5.302699 2.222998 0.275731
C 6.603314 -2.648581 0.042290
C 2.470443 7.153192 1.165512
C -6.603314 2.648581 0.042290
C 7.153192 -2.470443 -1.165512
C 1.736317 6.493147 2.136491
C -7.153192 2.470443 -1.165512
C 6.493147 -1.736317 -2.136491
C 1.297751 5.186041 1.889179
C -6.493147 1.736317 -2.136491
C 5.186041 -1.297751 -1.889179
C 2.967052 8.597005 1.409103
C -5.186041 1.297751 -1.889179
C 8.597005 -2.967052 -1.409103
C 1.039041 -0.490499 2.658011
C -8.597005 2.967052 -1.409103
C 0.490499 1.039041 -2.658011
C -1.039041 0.490499 2.658011
C 1.057179 -0.521621 4.019580
C -0.490499 -1.039041 -2.658011
C 0.521621 1.057179 -4.019580
C -1.057179 0.521621 4.019580
C -0.000000 -0.000000 4.712967
C -0.000000 -0.000000 -4.712967
C -0.521621 -1.057179 -4.019580
Co -0.000000 -0.000000 -0.000000
H 2.850585 9.903539 2.562774
C -2.222998 -5.302699 -0.275731
H 9.903539 -2.850585 -2.562774
H 3.138889 -3.933158 -0.622509
H -9.903539 2.850585 -2.562774
C -2.648581 -6.603314 -0.042290
H 3.933158 3.138889 0.622509
H -3.138889 3.933158 -0.622509
N 0.839137 -1.772212 -0.022498
H -3.933158 -3.138889 0.622509
C -2.470443 -7.153192 1.165512
N 1.772212 0.839137 0.022498
H 4.967999 0.992836 -0.025374
N -0.839137 1.772212 -0.022498
N -0.000000 -0.000000 1.957520
H -0.992836 4.967999 0.025374
H 2.369441 4.910720 -1.128297
N -0.000000 -0.000000 -1.957520
H -4.967999 -0.992836 -0.025374
N -1.772212 -0.839137 0.022498
C -1.736317 -6.493147 2.136491
H 4.910720 -2.369441 1.128297
H 3.064426 7.100687 -0.735846
O 2.528677 9.131609 2.481577
H -4.910720 2.369441 1.128297
C -1.297751 -5.186041 1.889179
H 7.100687 -3.064427 0.735846
H 1.533168 6.921212 2.960300
O 9.131609 -2.528677 -2.481577
O 3.506048 9.212945 0.537929
H -7.100687 3.064426 0.735846
C -2.967052 -8.597005 1.409103
H 6.921212 -1.533168 -2.960300
H 0.792359 4.723608 2.547550
O -9.131609 2.528677 -2.481577
O 9.212945 -3.506048 -0.537929
H -6.921213 1.533168 -2.960300
H 4.723608 -0.792360 -2.547550
O -9.212945 3.506048 -0.537929
H -0.792359 -4.723608 2.547550
H 1.789014 -0.828636 2.183856
H -4.723608 0.792359 -2.547550
H 0.828636 1.789014 -2.183856
H -1.789014 0.828636 2.183856
H 1.794742 -0.901190 4.482740
H -0.828636 -1.789014 -2.183856
H 0.901190 1.794742 -4.482740
H -1.794742 0.901190 4.482740
H -0.000000 -0.000000 5.663477
H -0.000000 -0.000000 -5.663477
H -0.901190 -1.794742 -4.482740