62
H36 C18 N2 O6
H -0.951432 0.425636 4.392511
H -2.243421 -1.273397 3.748921
N 2.384298 1.791107 -0.543803
H -1.231686 -2.156291 2.869539
N -2.392362 -1.813900 0.474926
C 2.933174 2.200683 0.760141
H -3.470195 -2.352250 2.086811
C 1.883895 2.530369 1.769726
H -3.498396 -0.780268 1.800677
C 0.293144 1.569737 3.213379
H -2.749289 -3.779955 0.166821
H -1.561293 -3.508626 1.200996
C -0.356905 0.277912 3.615651
C -1.835378 -1.371377 2.852409
H -0.820999 -4.376446 -0.918422
O 1.225209 1.336524 2.169291
O -1.101782 -0.206818 2.527602
C -2.914093 -1.578749 1.818934
H -1.284564 -2.991810 -1.587440
H 1.084377 -2.890600 -2.158742
O 0.261064 -2.807910 -0.351160
C -1.958408 -3.212103 0.344451
O 2.410914 -1.075499 -1.004585
H 1.454524 -4.137419 -1.221785
C -0.957954 -3.408924 -0.752064
O -0.277764 2.265501 -1.720279
H 2.757089 -2.666647 0.134708
C 1.318275 -3.157191 -1.233825
C 2.568314 -2.473056 -0.817331
H 3.329936 -2.802311 -1.359122
O -2.413689 0.432957 -1.434190
C 3.610543 -0.353680 -0.834776
H 4.338146 -0.784575 -1.349930
H 3.867531 -0.345282 0.120193
C 3.403260 1.043231 -1.317762
H 4.264117 1.530330 -1.267761
C 1.952813 2.978707 -1.303297
H 3.127236 1.015667 -2.268254
C 0.927153 2.681968 -2.349671
H 2.744751 3.384407 -1.738981
C -1.355950 2.172689 -2.635920
H 1.581432 3.644969 -0.671832
C -2.579021 1.759236 -1.915018
H 0.758295 3.492077 -2.894497
C -3.603800 -0.061248 -0.806433
H 1.257112 1.967470 -2.949244
C -3.426129 -1.527067 -0.537372
H -1.141793 1.510949 -3.339926
H -1.503127 3.050630 -3.069606
H -2.745764 2.372309 -1.156602
H -3.357388 1.801658 -2.524150
H 3.511484 2.992488 0.628576
H -4.383224 0.081092 -1.398519
H 3.499146 1.470035 1.113548
H -3.764550 0.421329 0.042839
H 2.298812 2.964494 2.556457
H -4.288043 -1.904343 -0.230189
H 1.228911 3.160454 1.379493
H -3.182890 -1.981866 -1.382063
H -0.397974 2.208651 2.906867
H 0.758295 1.965317 3.992520
H 0.333507 -0.381889 3.874029