93
Fe1 H49 C38 N4 O1
H -2.751797 -2.483717 2.303154
H -0.583333 -6.180702 -0.783515
H 0.596162 -5.460701 -1.591041
H -1.300066 3.500618 2.350110
H 0.829189 -6.441274 1.076480
H -3.122933 -4.627067 1.289921
H -2.211832 -5.828048 0.759298
H -2.557551 -6.040620 3.075626
H -1.000489 -5.814334 2.786712
H -1.899052 -4.602577 3.319901
H -3.728134 -1.584451 4.154065
H -4.139206 -0.187551 4.817201
H -6.016685 -1.205348 3.762311
H -5.694805 0.205266 3.079762
H -5.253731 -1.152450 2.356344
H -0.640393 0.128858 -3.315608
H -1.201555 -1.253348 -2.723454
H -2.746056 -0.429510 -4.352035
H -3.455159 -0.399143 -2.918455
H -2.878456 0.950737 -3.554150
C 0.346134 -2.979391 -0.471165
C -0.237259 -4.261679 -0.151509
C -1.248298 -4.019719 0.726873
C -1.252182 -2.601268 0.979725
C -2.104605 -1.945920 1.861182
C -2.114381 -0.597021 2.164973
C -2.964986 0.028939 3.158115
H -3.997761 3.581924 2.502223
C -2.628715 1.347472 3.178697
H -5.064109 2.565106 3.124979
Fe -0.176085 0.059601 -0.149454
H 1.701807 -3.547555 -1.833592
C 0.206008 -5.590007 -0.690300
C -2.211250 -5.011068 1.318576
C -1.888690 -5.401925 2.752562
C -4.022166 -0.660694 3.955519
C -5.368177 -0.707715 3.222378
H 4.345297 0.201348 -4.492108
C -1.367023 -0.278653 -2.780816
H 6.208153 1.290656 -3.521858
C -2.738106 -0.015142 -3.465168
H 5.488008 1.256370 -2.093083
H 5.947727 -0.108204 -2.791056
H 2.890418 -3.134167 -3.792574
H 3.935663 -2.086982 -4.402520
N -0.273559 -1.979227 0.239250
C -1.594314 1.535554 2.186405
N -1.293534 0.332613 1.583024
O -1.382797 0.277854 -1.498440
C -0.988003 2.736535 1.881192
H 2.994493 2.486739 -1.961009
H 5.439604 -2.533676 -2.649601
H 4.383516 -3.529923 -1.974497
H 5.055914 -3.907066 -3.377497
H 1.502954 -7.113275 -0.209810
H 2.005590 -5.682089 0.301683
H 1.120597 6.085764 1.407581
H -0.960890 7.105521 1.001890
H -0.438977 6.426663 -0.351096
H -1.572337 5.706662 0.521351
H 2.675339 5.752703 -0.191544
H 3.527084 4.543885 -0.800424
H 2.966962 6.064213 -2.502800
H 2.260829 4.658497 -2.796980
H 1.409631 5.869274 -2.187313
C -4.336215 3.187148 3.332216
H 3.904273 1.593350 -3.838836
C 2.360677 0.593185 -1.812250
C 3.220080 -0.031795 -2.797755
C 2.948631 -1.366001 -2.751964
C 1.920704 -1.556042 -1.760387
C 1.357835 -2.775636 -1.399890
C 0.031356 2.946168 0.961597
C 0.680667 4.216700 0.712523
C 4.236235 0.683308 -3.634807
C 1.647761 3.982578 -0.215110
C 5.590416 0.790083 -2.949827
C 1.570776 2.579800 -0.551071
C 3.583991 -2.468044 -3.557944
C 2.372738 1.943065 -1.490684
C 4.716585 -3.172371 -2.824262
C 1.225687 -6.265927 0.196659
H -3.556761 2.039065 4.872867
H -2.492964 3.075474 4.276634
N 1.562485 -0.343306 -1.204297
H -4.670852 3.897353 3.917962
C 0.313435 5.515641 1.345005
C -0.759936 6.254254 0.559886
C 2.629265 4.963151 -0.786510
C 2.285930 5.430416 -2.194690
N 0.588098 1.966575 0.174942
H -0.012903 5.349110 2.264701
C -3.208734 2.435800 4.035280