95
H48 Pt1 C42 N4
H -0.701950 5.571439 -1.366352
H -2.412608 -3.935546 1.883671
H 1.203486 4.907932 0.185940
H 3.716968 6.815402 -2.355742
H 3.979494 4.846315 -3.593951
H 2.836233 2.907590 -2.952989
H 4.921203 3.104052 0.948071
H 3.938845 3.713978 -0.157896
H 5.817182 1.591293 -0.609393
C 2.299662 -3.578342 4.130162
H 5.890012 3.051364 -1.261125
C 3.411759 -4.327577 3.389701
H 4.741669 2.031547 -1.709132
C -0.537490 -4.995549 3.587415
C -0.220933 -6.212721 2.714986
C 2.286620 -1.059161 2.323280
H 5.148162 -1.310096 1.703427
C 1.236683 -1.945026 2.388865
H 5.949292 -0.259024 0.801328
C -0.704321 -2.908584 2.025234
C -1.963772 -3.172022 1.540037
H 2.326423 6.852015 -0.479085
H -3.725242 0.392874 -2.302436
H -3.020654 3.627356 -3.746080
H -3.891226 2.378928 -3.248342
H -3.474571 2.175322 -5.562943
Pt -0.367423 -0.363640 0.333694
C 4.794852 0.656312 2.260461
H -2.744577 0.974223 -4.796893
C -1.959876 1.150146 -1.743962
C 5.664747 -0.477811 1.712571
H -5.652696 -3.861426 0.140292
C -1.949545 2.318203 -2.583470
H -4.675419 -4.103432 1.386464
C -0.801710 3.000463 -2.328437
H -2.062008 5.400874 -2.192967
H -4.233358 -5.151825 -1.247617
C -0.058505 2.214614 -1.334497
H -4.665257 -6.025189 0.023101
C 1.232618 2.468229 -0.856809
H -3.212044 -5.358111 -0.031556
C 1.945166 1.655590 0.040062
C 3.309120 1.878842 0.546861
H -6.116775 -2.279012 -1.512681
C 3.548951 0.898317 1.464136
C 2.384687 0.056209 1.509968
H -5.737382 -2.249543 -3.866828
H -4.733006 -3.276504 -3.162033
C -0.488202 4.316760 -3.007763
C -1.090659 5.515179 -2.263409
C 1.916373 3.718443 -1.313448
C 1.763769 4.894537 -0.581386
C 2.432789 6.048306 -0.975278
C -2.632792 -2.417429 0.590748
C 3.257123 6.026874 -2.092312
C -3.926625 -2.760345 0.029659
C 3.414300 4.857031 -2.830612
C 2.739521 3.705048 -2.445823
C 4.373793 2.881693 0.153960
C 5.288741 2.339635 -0.957917
H -5.651002 -0.822513 -1.987053
H -4.213033 -1.832507 -3.615645
N -0.810009 1.099245 -0.986401
N 1.425194 0.516109 0.636468
N 0.070387 -1.830721 1.656403
H 1.923317 -4.169514 4.828535
H 3.022542 -1.231511 2.897122
H 2.690573 -2.788028 4.580881
H 3.042867 -5.140216 2.982873
H 4.118380 -4.571369 4.023209
H 3.783023 -3.751586 2.689425
C -4.706075 -3.984661 0.403155
H -1.518323 -4.920536 3.696434
C -4.154261 -5.242912 -0.274584
H -0.141328 -5.127714 4.485985
C -4.975377 -2.331700 -3.255022
H -0.556290 -7.023574 3.151624
H 0.749569 -6.284162 2.593506
C -4.202871 -1.817326 -0.912453
C -3.094331 -0.885917 -0.913223
C -2.999482 0.232132 -1.710697
C -3.005072 2.648617 -3.600144
C -2.757958 1.944925 -4.935195
H 4.541810 0.441989 3.192553
H 5.329390 1.489490 2.278981
H 6.454021 -0.589437 2.283096
C 1.193493 -3.125586 3.229452
C -0.008202 -3.720330 2.999525
C -5.357311 -1.761959 -1.880368
H -1.896023 2.233367 -5.302422
H -0.652832 -6.109132 1.842417
N -2.146016 -1.274376 0.004845
H -0.842529 4.297113 -3.931739
H 0.493817 4.428386 -3.060088
H -0.893340 6.338534 -2.758155