65
Ni1 H16 C36 S4 Br4 N4
C 1.322487 -1.826538 -1.837930
C 0.232233 -0.665088 5.817319
Ni -0.091553 0.005170 0.038925
C 1.754640 -1.913979 -3.170684
N -1.178297 1.264326 -0.940261
H 0.530572 -0.817160 7.895704
N 0.605157 -0.665088 -1.630900
C 1.348811 -0.775340 -3.791773
C 1.061440 -0.537727 4.756292
C -0.645235 2.049398 -6.892367
C 3.667520 -5.962896 -1.810433
H -0.713239 -0.706907 5.751005
H 2.088078 -7.023598 -2.480045
C 2.395192 -6.210013 -2.099952
H 0.627093 -5.160716 -1.936592
C 0.589801 -0.035890 -2.850434
C 0.096225 3.030262 -6.371558
C 0.956144 -0.727817 7.049793
N 0.960531 -1.296186 1.018434
C -0.186758 1.062830 -3.167449
C 0.385790 2.769839 -5.017777
C 1.563791 -5.139806 -1.786172
H 0.387983 3.798226 -6.848697
C -1.097131 1.583677 -2.266546
C -0.160434 1.615992 -4.537404
C 2.195568 -4.063897 -1.247571
H 0.918852 3.347712 -4.484029
C -2.209322 2.431478 -2.636935
S -1.070807 0.860194 -5.794139
C -1.805687 1.596983 1.888606
C -2.972719 2.598758 -1.548411
H -2.457207 2.665289 3.619246
C -2.283907 1.958154 -0.471210
C -1.834204 2.058902 3.237534
H -0.531164 1.596983 4.761144
C -0.798792 1.458218 3.860241
H 2.171437 -2.807402 3.585280
S 3.907946 -4.386099 -1.124647
S 2.738940 -0.493056 5.218874
C -0.188952 0.591407 2.941547
C -2.606376 2.100722 0.868014
H 2.239441 -2.632519 -3.563717
H 2.364480 -4.132329 1.510130
C 0.771876 -0.383754 3.271500
H 1.539660 -0.522520 -4.687824
S -4.063192 4.406514 1.102540
C 1.199641 -1.336105 2.359275
H -2.371653 2.802154 -3.497402
C -5.866170 3.144316 2.377067
Br -1.309917 2.007958 -8.662148
Br 3.585257 -0.689799 8.220805
C 1.873098 -2.552681 2.718343
H -3.804120 3.053073 -1.501506
C -4.927279 2.203370 2.063288
H -6.660278 2.946622 2.862293
Br 5.172816 -7.079485 -2.046415
C 1.478237 -2.467141 0.512182
C 1.998137 -3.257915 1.587766
C -3.869930 2.724217 1.364562
C -5.565637 4.349487 1.945216
C 2.241635 -0.651781 6.910695
N -0.757112 0.716867 1.704220
Br -6.572093 5.919820 2.153863
C 1.625213 -2.763681 -0.851303
H -4.999670 1.287137 2.302666