42
H24 C12 O6
H -0.114312 -4.271501 0.716897
C -0.464520 3.082353 -1.223690
H 1.914083 1.855082 -3.698355
C -1.859222 2.608011 0.599988
H -1.193673 -3.081741 0.733719
H 2.884282 -0.069243 -2.643832
H 0.470481 1.339324 -3.224259
C -1.851314 2.094597 1.985019
H 1.026312 3.677819 -2.490221
H 1.444021 3.763779 -0.947363
H -0.890694 3.976724 -1.213241
C 1.434665 1.339324 -3.002187
H -0.944161 2.517363 -1.879466
H -2.493583 2.083657 0.049570
O 1.637059 1.942996 -1.728976
H -2.149391 3.554740 0.593846
O -0.544720 2.499389 0.061797
H -1.180306 2.583786 2.523573
C 1.219127 -2.212766 -2.312049
H -2.740867 2.224318 2.399993
C 0.254386 -2.917636 -1.435895
H 1.018515 -2.411646 -3.261680
H -0.670144 -2.648035 -1.663047
C 1.947611 -0.061429 -2.963886
H 0.333472 -3.896404 -1.561084
H 1.925222 -0.454108 -3.872687
C -1.516701 0.140967 3.230284
C -1.301720 -1.313706 3.093277
C 0.215400 -2.908649 2.211959
O 1.125226 -0.822172 -2.082917
C -0.234612 -3.297421 0.850909
O 0.547228 -2.573797 -0.086726
O -1.529511 0.715335 1.944024
O -0.043914 -1.525284 2.483516
H -2.377739 0.313668 3.686092
H -0.790444 0.540289 3.772003
H -1.322884 -1.745458 3.984523
H 2.139089 -2.523003 -2.118912
H -2.017952 -1.710292 2.537997
H 1.186713 -3.081741 2.296096
H -0.252435 -3.466606 2.882233
C 0.972400 3.209339 -1.619413