83
Co1 H28 C46 N6 O2
C 3.640222 -5.901960 -0.532354
C 4.280413 -6.303396 0.613893
C 4.157072 -5.543705 1.760140
C 3.409641 -4.386850 1.753372
N -1.868315 0.391466 0.305359
H -1.287652 -3.406038 3.494909
H -4.695406 0.226336 1.745751
H -4.726426 1.671219 -0.230089
C -0.287631 -2.161635 -2.033681
C 0.544735 2.027339 2.100041
H -3.693907 -3.327744 2.631532
H -5.306940 -3.804626 4.199839
H -3.175432 0.285650 4.256322
H -3.639253 1.782729 -3.711877
H -5.293646 3.120847 -4.610196
H -3.185772 4.380671 -0.736892
C -4.593483 4.925883 -2.084146
Co 0.002478 -0.031085 -0.031430
N 0.137784 1.490906 -1.235221
H -0.872577 3.759063 -3.233115
H 1.558789 3.695004 -3.024944
N -0.119681 -1.569684 1.171383
H 4.929614 0.148042 -1.010302
N 1.881691 -0.439164 -0.364659
H 4.547036 -2.179429 -0.360288
H 0.690233 -4.374038 2.437033
N -0.508020 -1.164215 -1.493944
H -5.869729 -2.238743 5.794671
N 0.497319 1.099198 1.420344
H -4.819485 -0.195978 5.815782
H 4.626801 1.350925 -3.127162
H 6.390502 2.767337 -3.584702
H 3.160005 4.053260 -0.567165
H 2.440639 -4.473685 -1.319204
O -0.082309 -3.187289 -2.607800
H 3.718362 -6.409686 -1.308406
C 4.861666 4.638805 -1.458355
O 0.635579 2.964734 2.846983
H 4.792240 -7.078745 0.618208
H 4.582487 -5.814176 2.541275
H 3.346124 -3.878175 2.528438
C -2.282060 -1.101580 2.218576
C -2.646027 -0.114125 1.306801
H -5.888932 5.082946 -3.592645
C -3.976336 0.408785 1.183876
H -4.822439 5.728280 -1.675013
C -3.990516 1.212843 0.107344
C -2.660798 1.231349 -0.425151
C -2.240405 2.040388 -1.466252
C -3.268197 -1.466241 3.265051
C -3.914444 -2.689765 3.270883
C -4.881525 -2.978504 4.210238
C -0.905222 2.176335 -1.811462
H 6.545601 4.817221 -2.544339
C -0.379361 3.184669 -2.693817
H 4.914843 5.469672 -1.044506
C 0.954936 3.139591 -2.589141
C -3.607052 -0.538574 4.234048
C 1.283156 2.078823 -1.683299
C 2.583035 1.662204 -1.398330
C -3.254459 2.934602 -2.111231
C 2.837546 0.413293 -0.832775
C -3.880026 2.571365 -3.282825
C 4.109656 -0.237497 -0.801734
C -4.868231 3.381116 -3.825812
C 3.905811 -1.506811 -0.416202
C -5.222743 4.548173 -3.224681
C 2.510065 -1.628523 -0.107100
C 1.955105 -2.712779 0.557246
C -3.606756 4.114234 -1.521301
C 0.758477 -2.624045 1.232630
C 0.296133 -3.559542 2.225426
C -0.805220 -3.041851 2.787303
C -1.103158 -1.816192 2.090801
C -5.216835 -2.045380 5.161530
C -4.589052 -0.828974 5.174752
C 3.712454 2.545029 -1.785142
C 4.683819 2.173488 -2.699258
C 5.737608 3.024996 -2.975201
C 5.830667 4.252554 -2.356217
C 3.812013 3.788720 -1.175398
C 2.754531 -3.972840 0.609736
C 2.874179 -4.738699 -0.539919