42
H24 C12 O6
H -0.907453 -3.347873 -1.292652
H 1.365506 -2.992363 -1.779712
H 1.804263 -4.096494 -0.700353
C -1.820430 -3.066713 0.530326
H 2.884661 -2.291599 0.530817
C -0.679002 -3.503579 -0.342800
H 3.597229 -2.686420 -0.851226
C 1.592307 -3.137644 -0.826591
H 4.484640 -0.384155 -0.916164
H 3.724237 -0.148288 0.476493
C 2.776951 -2.300658 -0.453391
H 4.068975 1.887346 -0.771094
C 3.627414 -0.107267 -0.508313
C 3.292738 1.292893 -0.928812
H 3.075999 1.313061 -1.894114
C 1.831644 3.071466 -0.478172
H 1.561792 3.138465 -1.428870
C 0.710505 3.503888 0.394715
H 2.612500 3.663184 -0.336771
C -1.580433 3.126501 0.881507
H 0.926749 3.304256 1.340686
C -2.761613 2.307120 0.459637
C -3.639457 0.112704 0.472542
H -1.801461 4.090479 0.822807
C -3.339915 -1.295318 0.895565
H -1.344560 2.917981 1.820303
H -3.582880 2.658186 0.886805
H -2.875261 2.362498 -0.521604
H -3.769270 0.147400 -0.508632
H -4.471941 0.424288 0.907014
H -3.121031 -1.317367 1.860236
O -2.242198 -1.775769 0.139834
H -4.132151 -1.869432 0.742561
O 0.487333 -2.774956 -0.004899
O 2.590067 -0.981171 -0.926475
O 2.180176 1.742749 -0.176010
O -0.470015 2.828762 0.024473
O -2.557080 0.956355 0.845786
H 0.577063 4.481881 0.308123
H -2.571760 -3.705091 0.444569
H -1.532599 -3.053894 1.477465
H -0.514881 -4.472513 -0.218815