29
H20 C8 N1
H -0.071303 2.788015 -0.017906
H 1.208638 3.059484 0.903467
H -0.811421 -1.027301 1.581655
H -0.226424 -2.617754 -0.771143
C -0.851336 -2.363990 -0.060889
H -1.048417 -3.147413 0.495343
H -1.682115 -2.030555 -0.459532
C -2.292864 0.858226 0.613505
C -0.207635 -1.239755 0.826885
C -1.304568 0.507087 -0.576453
H 0.056799 1.134121 1.707367
H 0.651037 -1.561387 1.199587
C 2.267177 -0.983040 -0.777304
C 0.804918 2.445728 0.255120
H -1.155256 1.309691 -1.135621
H -1.702270 -0.198141 -1.145166
H 0.435256 -0.866486 -1.821827
N 0.034505 0.017411 -0.002604
H 1.132507 0.564627 -1.659851
H -1.824804 1.408541 1.275423
H -3.063448 1.352476 0.264134
C 0.924664 -0.280762 -1.189779
H -2.601393 0.029066 1.037604
C 0.632543 1.044123 0.906893
H 2.071687 -1.859412 -0.386521
H 2.834420 -1.096644 -1.567915
H 2.735622 -0.428300 -0.117696
H 1.519157 0.722492 1.210145
H 1.385169 2.370484 -0.531245