18
H12 C6
H 0.926456 -0.816738 -1.989514
H 1.426160 0.367062 1.828724
C 1.423667 -0.403996 -0.045683
C 0.771326 -0.095573 1.248723
H 2.070538 -1.141792 0.088720
C -0.474239 0.766197 1.138521
H 1.930819 0.389740 -0.348130
C -1.402030 0.451727 0.047248
H -0.969973 0.701187 1.991432
H -1.988398 1.234879 -0.101428
H -0.187889 1.708097 1.034834
C 0.446138 -0.801619 -1.123852
H -1.978285 -0.299676 0.335045
H 0.528751 -0.946760 1.690686
H 0.137662 -1.723865 -0.940989
H -1.432034 -0.379806 -1.828987
H -0.496061 0.912850 -1.736817
C -0.762155 0.082829 -1.266935