145
Co1 H64 C66 N10 O4
H 2.420450 4.927996 -0.803342
H 2.836129 7.198836 -0.515511
C 2.091292 -0.677688 4.398959
H 1.454543 8.457564 0.861131
C 1.372727 -0.238203 5.511755
H -0.353561 7.476811 1.920636
C 1.853798 -0.428224 6.790407
H -4.026101 5.635050 4.199303
C 3.060068 -1.051458 6.969797
H -4.154644 4.256579 5.002325
C 3.801932 -1.480109 5.886007
H -2.930997 5.244459 5.299708
C 3.320135 -1.281821 4.590131
H -1.409333 3.240189 4.859622
C 4.716462 -2.861573 3.356162
H -2.670786 2.334989 4.470016
H -1.469240 2.521731 3.429485
H -3.104468 3.191722 1.776516
C 4.684640 -2.898066 0.850403
H -4.368610 3.257295 2.754849
H -3.937167 4.551660 1.918099
N 0.402025 -1.577757 1.135962
C 0.569081 3.349098 0.253275
N 4.111441 -1.654735 3.477460
C 1.034733 2.526150 1.264786
C 1.736800 3.008116 2.416284
C 1.963335 1.953379 3.200396
O 4.595725 -3.729995 4.194489
C 1.417390 0.806982 2.544428
H -6.715404 4.563064 -2.906159
H -6.696228 4.590149 -1.306842
H -5.429166 5.114738 -2.131288
C 0.798453 4.824076 0.398244
H -5.236550 3.004980 -0.046929
C 1.853591 5.440039 -0.238997
C 2.102430 6.788574 -0.072666
H -6.299778 1.121878 -2.073070
C 1.281792 7.530981 0.737946
H -7.242233 2.156800 -1.295803
C 0.217221 6.950797 1.370983
H -7.228426 2.132566 -2.896833
C -0.030778 5.592712 1.210903
C -1.613394 5.163348 3.082601
C -2.703279 4.196708 3.536113
C -3.526346 4.895209 4.603592
C -1.999183 2.961216 4.127588
C -3.608936 3.760359 2.394802
C -1.671402 0.233356 0.899663
H 6.715404 -4.563064 2.906159
H 6.696228 -4.590149 1.306842
H 5.429166 -5.114738 2.131288
H 5.236550 -3.004980 0.046929
H 6.299778 -1.121878 2.073070
N 0.865515 1.172056 1.345794
H 7.242233 -2.156800 1.295803
H 7.228426 -2.132566 2.896833
N -1.126656 4.952799 1.831687
N -2.664974 0.398716 1.436099
O -1.169203 6.036759 3.795592
C -5.561242 3.050881 -2.094989
C -6.153501 4.454868 -2.111111
C -6.682679 2.024227 -2.089467
H 1.544158 -4.344961 -1.351198
H -1.991897 -3.907329 -2.587933
H -2.407105 -1.962930 -4.040271
H -0.538445 -0.199572 -5.386776
C 5.561242 -3.050881 2.094989
C 6.153501 -4.454868 2.111111
C 6.682679 -2.024227 2.089467
H -2.420450 -4.927996 0.803342
H -2.836129 -7.198836 0.515511
H -1.454543 -8.457564 -0.861131
H 0.353561 -7.476811 -1.920636
H 4.026101 -5.635050 -4.199303
H 4.154644 -4.256579 -5.002325
H 2.930997 -5.244459 -5.299708
H 1.409333 -3.240189 -4.859622
H 2.670786 -2.334989 -4.470016
H 1.469240 -2.521731 -3.429485
H 3.104468 -3.191722 -1.776516
H 4.368610 -3.257295 -2.754849
H 3.937167 -4.551660 -1.918099
H -4.216832 1.070560 -2.827999
H -1.569130 3.218806 -3.628184
H -0.540797 4.681382 -1.937281
H -1.353313 0.129722 -7.540384
H -3.389336 1.190303 -7.850210
H -4.639005 1.908761 -6.021643
H -3.984130 3.583738 -0.858129
H -4.272453 2.009972 -0.848711
C -0.569081 -3.349098 -0.253275
C -1.034733 -2.526150 -1.264786
C -1.736800 -3.008116 -2.416284
C -1.963335 -1.953379 -3.200396
C -1.417390 -0.806982 -2.544428
C -0.798453 -4.824076 -0.398244
C -1.853591 -5.440039 0.238997
C -2.102430 -6.788574 0.072666
C -1.281792 -7.530981 -0.737946
C -0.217221 -6.950797 -1.370983
C 0.030778 -5.592712 -1.210903
C 1.613394 -5.163348 -3.082601
C 2.703279 -4.196708 -3.536113
C 3.526346 -4.895209 -4.603592
C 1.999183 -2.961216 -4.127588
C 3.608936 -3.760359 -2.394802
C 1.671402 -0.233356 -0.899663
C -1.506724 0.481253 -3.039945
C -1.043423 1.593010 -2.345273
C -1.163836 2.940546 -2.815452
C -0.603024 3.733844 -1.901228
C -0.112353 2.885807 -0.854821
N -0.865515 -1.172056 -1.345794
N 1.126656 -4.952799 -1.831687
N 2.664974 -0.398716 -1.436099
O 1.169203 -6.036759 -3.795592
C -2.091292 0.677688 -4.398959
C -1.372727 0.238203 -5.511755
C -1.853798 0.428224 -6.790407
C -3.060068 1.051458 -6.969797
C -3.801932 1.480109 -5.886007
C -3.320135 1.281821 -4.590131
H 4.216832 -1.070560 2.827999
C -4.716462 2.861573 -3.356162
H 1.569130 -3.218806 3.628184
H 0.540797 -4.681382 1.937281
C -4.684640 2.898066 -0.850403
H 1.353313 -0.129722 7.540384
H 3.389336 -1.190303 7.850210
H 4.639005 -1.908761 6.021643
H 3.984130 -3.583738 0.858129
H 4.272453 -2.009972 0.848711
N -0.402025 1.577757 -1.135962
N -4.111441 1.654735 -3.477460
O -4.595725 3.729995 -4.194489
Co 0.000000 0.000000 0.000000
H -1.544158 4.344961 1.351198
H 1.991897 3.907329 2.587933
H 2.407105 1.962930 4.040271
H 0.538445 0.199572 5.386776
C 1.506724 -0.481253 3.039945
C 1.043423 -1.593010 2.345273
C 1.163836 -2.940546 2.815452
C 0.603024 -3.733844 1.901228
C 0.112353 -2.885807 0.854821