83
Fe1 H28 C44 N4 Cl4 O2
N 1.774630 0.546085 0.953486
H 5.390586 5.299155 -2.409152
Cl 4.387449 -2.368880 8.090633
Cl 7.967124 4.248196 -2.839515
Fe -0.035309 0.125094 0.108718
H -3.746272 1.884075 -3.580413
H -4.800944 2.250231 -5.633425
H -7.087883 -1.568515 2.561760
H -1.714286 0.458743 -7.552055
H -0.670509 0.055077 -5.486868
H 0.214195 2.373474 -4.521956
H 1.670906 0.574841 5.534336
H -0.297887 -2.097209 4.754535
H -2.504200 -2.584823 3.735775
H -3.610080 -4.242351 0.948745
H -5.712887 -5.181856 1.381876
H -4.980718 -0.639727 2.149352
H -4.596111 -1.920382 -1.103130
H -3.895539 -0.782618 -3.186469
H -0.268470 2.453850 1.023497
H -1.214188 1.626872 1.735918
H 0.726278 -1.688185 -1.593865
H 2.388911 2.916458 -3.474817
H 0.250150 -2.220452 -0.336119
H 3.383659 4.388229 -1.608101
H 7.187233 1.687600 -2.029342
H 5.166142 0.765957 -1.303637
H 4.648612 1.944803 1.244828
H 3.976367 0.708801 3.281581
H 2.834532 -0.094957 7.462924
H 4.048277 -3.449310 5.545631
H 2.910800 -2.761650 3.618746
C -1.462602 0.677187 -2.991205
C -2.102161 0.926709 -4.321780
C -3.333338 1.586684 -4.382580
C -3.958732 1.810843 -5.599687
C -6.381863 -2.108998 2.226775
C -3.344233 1.388602 -6.760935
C -2.125041 0.740416 -6.742993
C -1.506184 0.505718 -5.513515
C -0.216172 1.266252 -2.736044
C 0.511639 2.093588 -3.664288
C 1.694876 2.396694 -3.088177
C 1.474790 -0.605076 3.121437
C 0.182599 -1.111444 2.916881
C 1.715577 1.792625 -1.787415
C -0.583346 -1.846615 3.884274
C -1.786195 -2.118643 3.326614
C 2.792040 1.848531 -0.889905
C 4.067888 2.483143 -1.369288
C -1.775300 -1.569051 1.997474
C -2.812539 -1.677290 1.067327
C 4.149603 3.834171 -1.701606
C -4.094924 -2.339944 1.475905
C 5.344826 4.381263 -2.170333
C -4.317190 -3.692581 1.268152
C 6.459422 3.571967 -2.283966
C -5.564710 -4.253961 1.523399
C 6.411483 2.230405 -1.954204
C 5.211902 1.690815 -1.512331
C -6.580159 -3.450917 1.982638
C 2.792040 1.301082 0.402533
C -5.131074 -1.561906 1.976140
C -2.783122 -1.181460 -0.244122
C 3.842354 1.457011 1.365522
C -3.800749 -1.415443 -1.228176
C 3.474090 0.783818 2.477667
C 2.182989 0.202790 2.224440
C -3.423769 -0.788690 -2.361792
C -2.168623 -0.128179 -2.091045
C 2.180810 -1.019458 4.384671
C 2.159019 -0.240884 5.530842
C 2.843248 -0.637227 6.682732
C 3.530746 -1.832505 6.661164
C 3.566701 -2.630190 5.538887
C 2.890099 -2.219023 4.397402
N 0.526892 1.117110 -1.580056
N -1.787067 -0.402172 -0.794244
N -0.564606 -0.954265 1.768665
Cl -4.152779 1.683849 -8.277599
Cl -8.170447 -4.128932 2.237736
O -0.875451 1.806199 0.929120
O 0.822048 -1.673539 -0.717272