13
H6 C5 N2
C -0.059916 0.768770 1.473112
H -1.021184 -0.460571 -2.561032
C -0.832691 0.841152 0.347625
H -1.926135 0.568859 -1.976874
N -1.241073 0.054833 -1.907273
H -1.571836 1.404121 0.312396
H 1.999653 -1.422214 0.431507
H 1.530979 -0.165299 2.288922
H -0.259295 1.303017 2.206835
N 0.555031 -0.774340 -0.725058
C -0.487066 0.056442 -0.738705
C 1.276432 -0.838564 0.405574
C 1.008010 -0.091768 1.523287