12
H4 C6 N2
H 0.757949 1.069603 -1.674632
N 1.161623 0.858008 1.734221
H -1.049175 -1.310468 1.060914
C 0.607705 0.791979 -0.798565
C -1.036913 -0.744713 -1.474033
C -0.283057 -0.186462 -0.407718
H 1.889957 2.075056 0.341102
C -0.416314 -0.648670 0.896756
C 0.289901 -0.213474 1.908250
C 1.317039 1.351730 0.455450
H 0.209182 -0.618656 2.742247
N -1.701916 -1.245938 -2.409407