20
H14 C6
C -0.543099 -3.181355 0.433773
C -0.061675 -1.758232 0.813314
C 0.249651 0.625609 0.175385
H -1.488328 -3.165035 0.265278
H 0.357173 3.785204 -1.154897
H -1.199463 -0.532039 -0.343333
H -0.512083 -1.505813 1.634119
H 0.083723 3.474031 0.356813
H -0.885023 1.814809 -1.015643
H -0.165627 0.888908 1.011066
H -0.083723 -3.474031 -0.356813
H -0.357173 -3.785204 1.154897
H 0.885023 -1.814809 1.015643
H 0.165627 -0.888908 -1.011066
H 1.488328 3.165035 -0.265278
H 0.512083 1.505813 -1.634119
H 1.199463 0.532039 0.343333
C -0.249651 -0.625609 -0.175385
C 0.543099 3.181355 -0.433773
C 0.061675 1.758232 -0.813314