122
Co1 H52 C57 N6 O6
Co 0.979442 0.840986 -0.560828
H -2.317129 1.549814 -4.401547
H -0.311538 0.591136 -5.496598
H 4.412360 -1.046253 -3.803067
H 4.503601 1.093099 3.122450
H 2.351680 1.382965 4.316385
H -2.654550 2.015014 2.808233
H -3.764942 2.321847 0.609728
H -2.811210 3.964892 -2.862077
H -4.889105 4.868425 -3.442483
H -6.837885 3.696236 -2.918485
H -6.715656 1.578094 -1.972806
H 2.646063 1.350443 -5.827848
H 3.141865 0.700012 -8.015710
H 3.004142 -1.538318 -8.630448
H 2.282818 -3.130459 -7.089540
H 1.699217 -2.468717 -4.910320
H -1.556210 3.578876 6.317775
H -1.626793 1.638895 7.604714
H -0.915798 -0.377440 6.708770
H 5.603663 -1.139576 2.025092
H -0.736758 3.512419 4.130722
H -0.129055 -0.467935 4.509870
H -3.888892 -0.357645 -1.516527
H -5.133564 -2.252378 -1.642507
H -5.443440 -3.343970 -0.516484
H -3.105593 -3.102180 0.180416
C 5.703857 0.430932 0.735643
C 6.598540 1.313680 0.139010
H -3.332836 -3.836036 -1.230636
H -0.857266 -1.498727 -1.969957
C 7.958382 1.247647 0.422325
H -1.063850 -3.045621 -1.610214
C 8.430599 0.319369 1.331919
H -1.325524 -1.191893 0.522767
C 7.558124 -0.560975 1.917437
H -0.791847 -2.703438 0.595828
C 6.197077 -0.517424 1.620048
H 1.244731 -3.290239 -0.121874
H 2.356844 -2.130776 -0.485203
H 3.016193 -3.058347 1.592213
H 2.300034 -1.502969 1.922676
H 2.375781 -3.478299 3.957439
H 1.651014 -2.038867 4.007477
H 0.198037 -4.503434 4.353317
H 0.769587 -3.595659 5.642177
H -2.200064 -4.058030 4.044970
H -1.353068 -3.377906 2.858220
H -3.176176 -1.941302 4.557545
H -2.332623 -1.264006 3.370996
H -4.448392 -0.609333 2.562945
H -5.338427 -1.528420 3.532174
H -5.932357 -2.819384 1.539354
H -6.603756 -1.372882 1.655044
C -1.236864 1.341111 -2.563546
C 0.534253 0.495975 -3.527669
C 2.752454 -0.174817 -2.764477
C 3.887807 0.145874 -0.919860
C 3.325381 0.881709 1.343388
C 1.427559 1.199854 2.388947
C -0.891352 1.543734 1.683676
C -1.887433 1.736177 -0.250378
C -1.515065 1.276775 -3.971829
C -0.425676 0.756006 -4.566827
C 4.085095 -0.658964 -2.998999
C 4.785072 -0.461148 -1.863184
C 3.636635 1.082211 2.733638
C 2.467367 1.252737 3.382595
C -2.256531 1.904582 1.951917
C -2.865611 2.056161 0.757377
C -2.161674 1.745509 -1.610957
C 1.780474 -0.069758 -3.752053
C 4.251740 0.501772 0.379118
C 0.078046 1.407285 2.672188
C -3.507400 2.233756 -2.060309
C -3.604150 3.476786 -2.672324
C -4.838320 4.021734 -3.013637
C -5.990028 3.315734 -2.721673
C -5.918585 2.062241 -2.148066
H 5.696626 -0.681446 -1.714871
C -4.680111 1.502022 -1.824880
C 2.122371 -0.500739 -5.148293
C 2.558436 0.438709 -6.081280
C 2.866591 0.050006 -7.379295
C 2.774317 -1.274752 -7.748558
C 2.347204 -2.216887 -6.835935
C 2.009438 -1.821397 -5.533839
C -1.258728 2.755515 5.949206
C -1.304177 1.604394 6.710941
C -0.885327 0.412692 6.182273
C -0.360258 1.508809 4.094863
C -0.779108 2.714792 4.645927
H 6.276784 1.968352 -0.469732
H 8.562986 1.839680 -0.009498
H 9.354893 0.291372 1.549428
H 7.884700 -1.207447 2.532775
C -0.415863 0.362071 4.873692
C -5.307439 -0.171424 -0.149176
C -4.884629 -2.555959 -0.732885
C -3.435439 -2.980436 -0.744929
C -1.292298 -2.121726 -1.337013
C -0.760171 -1.865513 0.068868
C 1.605393 -2.393776 0.178532
C 2.110664 -2.466030 1.582048
C 1.490739 -2.992738 3.792653
C 0.415467 -3.591417 4.654201
C -1.764343 -3.221096 3.744972
C -2.774197 -2.099527 3.666816
C -4.827302 -1.515977 2.684401
C -5.743849 -1.847697 1.528383
N 0.038278 0.886233 -2.296715
N 2.631946 0.287979 -1.467168
N 1.961579 0.988464 1.134169
N -0.676504 1.422273 0.327638
N -4.617103 0.181223 -1.297144
N -5.191752 -1.486425 0.218726
O -5.961451 0.642039 0.504763
O -2.700860 -1.947807 -1.400020
O 0.581423 -1.395082 -0.006262
O 1.140406 -3.108119 2.418035
O -0.771361 -2.810759 4.688695
O -3.778025 -2.476070 2.737868