149
Ni1 H52 C76 N4 O16
C 6.615809 -2.955423 2.975542
H 4.459205 8.753641 -3.060557
H 1.080387 -8.747384 -4.460599
C -7.322858 0.064656 2.684319
H -3.326676 -4.225608 -2.075644
H -0.002086 8.542986 -5.580271
C 8.882954 -3.539416 3.305655
H 3.255762 9.756858 -3.029807
C 2.310945 -4.227694 0.560740
H 3.447646 8.801612 -4.258009
C -6.615809 2.955423 2.975542
C -8.611814 -0.145998 4.633344
H -1.080387 8.747384 -4.460599
H -0.354567 -9.352234 -4.286951
H 4.870086 1.019902 -1.987915
C 1.772837 -5.112026 1.497720
C -8.882954 3.539416 3.305655
C 2.363087 -6.355097 1.695787
H 6.947433 2.010605 -2.320742
C -2.310945 4.227694 0.560740
H -4.459205 -8.753641 -3.060557
C 3.483102 -6.703408 0.950545
H 7.541855 3.868955 -1.067216
C -1.772836 5.112026 1.497720
C 4.601032 3.443474 0.170935
H -3.255762 -9.756858 -3.029807
C 4.023296 -5.844103 0.058787
C -2.363087 6.355097 1.695787
H -3.447646 -8.801612 -4.258009
C -3.483102 6.703408 0.950545
H -4.870086 -1.019902 -1.987915
H 4.790830 -6.086043 -0.406989
C -4.023296 5.844103 0.058787
H 3.804299 -4.023296 -0.804029
H -6.947433 -2.010605 -2.320742
N 1.837284 -0.487843 0.213443
H -7.541855 -3.868955 -1.067216
C 0.377510 -2.911623 -0.265899
C -4.601032 -3.443474 0.170935
C 0.260711 4.017039 -0.933361
H -4.790830 6.086043 -0.406989
C 1.585124 3.627015 -1.192026
H -3.804299 4.023296 -0.804029
N -1.837284 0.487843 0.213443
O 8.127725 0.579822 2.062982
C 1.722780 2.285916 -0.646660
C -0.377510 2.911623 -0.265899
C 2.903280 1.639352 -0.331018
O 7.398777 -0.285740 3.993919
C -0.260711 -4.017039 -0.933361
O 6.282098 -3.848098 3.671041
C 0.634050 6.073529 -2.105490
C 0.216912 -5.258024 -1.401851
C -1.585124 -3.627015 -1.192026
C 1.973063 5.702276 -2.336117
O 7.881405 -2.721825 2.654473
O -7.398777 0.285740 3.993919
O -8.127725 -0.579822 2.062982
C -1.722780 -2.285916 -0.646660
C 2.448600 4.480062 -1.901995
O -6.282098 3.848098 3.671041
C -2.903280 -1.639352 -0.331018
C -0.216912 5.258024 -1.401851
C 0.064656 7.322858 -2.684319
O -7.881405 2.721825 2.654473
C -0.634050 -6.073529 -2.105490
C 0.145998 -8.611814 -4.633344
C 2.955423 6.615809 -2.975542
C -1.973063 -5.702276 -2.336117
C 3.539416 8.882954 -3.305655
C -2.448600 -4.480062 -1.901995
C 4.227694 2.310945 -0.560740
C -0.064656 -7.322858 -2.684319
C -0.145998 8.611814 -4.633344
C 5.112026 1.772837 -1.497720
C 6.355097 2.363087 -1.695787
C -2.955423 -6.615809 -2.975542
C 6.703408 3.483102 -0.950545
C -3.539416 -8.882954 -3.305655
C 5.844103 4.023296 -0.058787
C -4.227694 -2.310945 -0.560740
C -5.112026 -1.772836 -1.497720
C 3.443474 -4.601032 -0.170935
C -6.355097 -2.363087 -1.695788
N 0.487843 1.837284 -0.213443
C -6.703408 -3.483102 -0.950545
C -5.844103 -4.023296 -0.058787
C -3.443474 4.601032 -0.170935
N -0.487843 -1.837284 -0.213443
O 0.579822 -8.127725 -2.062982
O 0.285740 7.398777 -3.993919
O 3.848098 6.282098 -3.671041
O 2.721825 7.881405 -2.654473
Ni 0.000000 0.000000 -0.000000
O -0.579822 8.127725 -2.062982
H 5.518736 1.094987 1.238151
O -0.285740 -7.398777 -3.993919
O -3.848098 -6.282098 -3.671041
H 8.542986 0.002086 5.580271
H 4.225608 -3.326676 2.075644
O -2.721825 -7.881405 -2.654473
H 8.747384 1.080387 4.460599
H 9.352234 -0.354567 4.286951
H -4.225608 3.326676 2.075644
H -5.518736 -1.094987 1.238151
H 8.753641 -4.459205 3.060557
H -9.352234 0.354567 4.286951
H -8.542986 -0.002086 5.580271
H 9.756858 -3.255762 3.029807
H 8.801612 -3.447646 4.258009
H -8.753641 4.459205 3.060557
H -8.747384 -1.080387 4.460599
H 1.019902 -4.870086 1.987915
H -9.756858 3.255762 3.029807
H 2.010605 -6.947433 2.320742
H 6.086043 4.790830 0.406989
H -8.801612 3.447646 4.258009
H 3.868955 -7.541855 1.067216
H -1.019902 4.870086 1.987915
H 4.023296 3.804299 0.804029
H -2.010605 6.947433 2.320742
H -3.868955 7.541855 1.067216
C 2.911623 0.377510 0.265899
H -6.086043 -4.790830 0.406989
H -4.023296 -3.804299 0.804029
C 4.017039 -0.260711 0.933361
C 3.627015 -1.585124 1.192026
C 2.285916 -1.722780 0.646660
C -4.017039 0.260711 0.933361
C -2.911623 -0.377510 0.265899
C 5.258024 0.216912 1.401851
C 1.639352 -2.903280 0.331018
C -3.627015 1.585124 1.192026
C -2.285916 1.722780 0.646660
C 6.073529 -0.634050 2.105490
C -1.639352 2.903280 0.331018
H 1.094987 -5.518736 -1.238151
C 5.702276 -1.973063 2.336117
H 3.326676 4.225608 -2.075644
C 4.480062 -2.448600 1.901995
C -6.073529 0.634050 2.105490
C -5.258024 -0.216912 1.401851
C 8.611814 0.145998 4.633344
H 0.002086 -8.542986 -5.580271
C 7.322858 -0.064656 2.684319
C -5.702276 1.973063 2.336117
H 0.354567 9.352234 -4.286951
H -1.094987 5.518736 -1.238151
C -4.480062 2.448600 1.901995