77
Ni1 H20 C46 N4 Cl4 O2
C -4.150296 -1.213754 6.285913
C -4.731367 -0.966116 5.056272
Ni 0.198679 -0.080810 0.133614
C -3.950997 -0.865780 3.911747
H -1.396355 3.322717 -3.222773
C -4.590305 -0.440953 2.648185
C -3.553695 2.005539 -2.134169
H -0.411510 -3.071039 4.180795
C -4.050646 1.399253 -3.284292
H 1.603473 -3.935637 3.051462
C -5.098904 1.913743 -4.001243
H 4.665421 -2.106105 -0.873448
C -5.661857 3.096427 -3.596667
C -5.220553 3.734736 -2.465133
H 4.788364 0.092750 -1.940052
C -4.182649 3.173281 -1.738145
H 5.078253 2.075988 -1.262415
H 6.552284 3.536198 -2.311962
H 5.780974 5.088205 -3.851150
H 3.501984 5.250451 -4.297735
H -1.048230 -1.341843 5.323895
H -2.372140 -1.480605 7.226306
H -5.430205 1.459028 -4.766646
H -6.365872 3.478558 -4.105746
H 6.314161 -3.984737 2.600576
Cl -3.693203 3.933700 -0.253317
H 6.046273 -6.123817 1.726063
H 4.146468 -6.678868 0.483847
C 1.070286 1.960708 -1.765650
C 0.562981 2.966204 -2.657986
C -0.788107 2.825306 -2.688508
O -5.805507 -0.364100 2.516385
C -1.118114 1.787789 -1.769890
C -2.390258 1.433410 -1.383971
C -2.636146 0.669148 -0.259268
C -2.277668 -0.285112 1.675620
C -1.721185 -0.970386 2.759613
C -0.507277 -1.621503 2.600989
C -0.023267 -2.731604 3.383618
C 1.078050 -3.194858 2.773515
C 1.314879 -2.364417 1.626120
C 2.427844 -2.454079 0.806288
C 2.757851 -1.487010 -0.127141
C 4.004112 -1.422965 -0.834682
C 4.063643 -0.238146 -1.421896
C 2.838088 0.464207 -1.139718
C 2.440785 1.698127 -1.655151
C 3.382923 2.678005 -2.244060
C 4.749540 2.686544 -1.912847
C 5.625676 3.572490 -2.521081
C 5.170137 4.501132 -3.421863
C 3.821638 4.582255 -3.703655
C 2.918325 3.679230 -3.113675
C 1.454647 3.850015 -3.396399
C -2.549438 -1.060048 3.980016
C -1.991662 -1.258585 5.242676
C -2.778502 -1.339708 6.378495
C 3.432100 -3.521484 1.082179
C 4.573536 -3.248228 1.834014
C 5.546733 -4.200353 2.083465
C 5.378494 -5.464161 1.570309
C 4.256471 -5.801461 0.828435
C 3.296215 -4.823718 0.601782
N 0.045323 1.258356 -1.208198
N -1.638360 0.129682 0.543812
N 0.326152 -1.414426 1.508195
N 2.015011 -0.351291 -0.373382
Cl -3.327866 -0.091484 -3.794154
Cl 4.801306 -1.660570 2.515998
Cl 1.878867 -5.227197 -0.318340
O 1.037932 4.691130 -4.192432
H -4.741720 0.754541 -0.007189
H -4.691248 -1.297012 7.061823
H -5.673504 -0.863645 4.993490
H -5.620444 4.548098 -2.183976
C -3.899231 0.513307 0.359391
C -3.679227 -0.048148 1.583115