13
H8 C4 O1
H -1.892545 -0.794098 0.238054
H -0.348492 0.787008 1.767438
H -0.348492 -0.787008 1.767438
O 0.959074 0.000000 -0.822667
H 1.503372 0.781690 0.813143
H 1.503372 -0.781690 0.813143
C -0.442336 0.000000 -1.043898
C -1.343243 0.000000 0.193170
C -0.267160 0.000000 1.209241
C 1.009124 0.000000 0.529507
H -0.656301 -0.781690 -1.580255
H -0.656301 0.781690 -1.580255
H -1.892545 0.794098 0.238054