83
Ni1 H31 C46 Br1 N4
H -1.345458 -2.019847 -5.911203
H -1.656476 -3.592158 -7.594348
H -1.876303 -5.857880 -7.068106
H -5.284453 4.237030 -5.153041
H -7.187468 4.608011 -3.861427
H -1.804979 -6.536351 -4.834955
C -1.437280 -2.937340 -5.685011
C -1.621651 -3.873506 -6.686665
C -1.756916 -5.216755 -6.376598
C -1.715352 -5.616369 -5.053718
Ni -0.632930 -0.076057 -0.712629
H 2.366344 -1.208171 3.153826
H 2.380331 -4.168548 -1.241766
H 0.918912 -4.208384 -3.242004
H -1.410289 4.604276 1.129289
H 4.272693 -1.557988 1.297208
H 5.923450 -2.831523 2.370219
H 5.498990 -5.063632 2.890631
H 3.441128 -6.023452 2.380055
H 1.787644 -4.751162 1.308055
H 1.253235 6.040893 5.182620
H 2.275282 3.676825 2.033765
H 2.826767 5.346238 3.588189
H -4.603537 0.422651 -3.856355
H -0.888804 5.123401 5.172138
H -3.155875 4.321684 -0.610200
H 1.082361 1.845574 4.376754
H 1.544063 0.398998 4.879629
H 3.324003 2.155554 3.534474
H 3.183151 2.158044 5.125125
C 0.580285 1.004020 1.808945
C 1.826283 -0.662904 2.593799
C 1.351583 -1.021435 1.304127
C 1.772479 -2.159276 0.618764
C 1.242539 -2.469256 -0.610054
C 1.667800 -3.569750 -1.430751
C 0.868469 -3.595893 -2.517613
H -1.532245 -4.955326 -3.131526
C -0.082667 -2.512828 -2.367006
H -3.485145 3.019516 -4.251836
H -7.290661 3.841152 -1.667819
H -5.475232 2.658495 -0.752442
H -1.432821 3.430334 3.653233
C -0.906004 2.563882 0.746107
C 0.020585 2.286269 1.739891
C 0.485647 0.001874 0.829923
C 2.852512 -3.013279 1.218322
C 4.094350 -2.463032 1.523487
C 5.084125 -3.221177 2.154620
C 4.828695 -4.542018 2.464915
C 3.609484 -5.114673 2.160524
C 2.621197 -4.352793 1.528382
C -1.149066 -2.326093 -3.253497
C -2.025863 -1.249253 -3.117343
C -3.233655 -1.097374 -3.901574
C -3.795438 0.051670 -3.519133
C -2.949733 0.629305 -2.497281
C -3.193775 1.851798 -1.888117
C -2.401251 2.333575 -0.860102
C -2.526729 3.665620 -0.333178
C -1.585809 3.817498 0.627803
C 0.370210 3.375558 2.700020
C 1.635288 3.956927 2.676691
C 1.961906 4.954094 3.601890
C 1.023837 5.374871 4.545276
C -0.239570 4.820889 4.546884
C -0.565340 3.816254 3.636814
C 1.702173 1.094898 4.194094
C 3.114850 1.589124 4.318882
Br 4.450173 0.171305 4.438544
C -1.384416 -3.326994 -4.338500
N 0.177804 -1.792030 -1.217814
N 1.399239 0.545896 2.889402
C -1.542348 -4.672733 -4.038320
C -4.316489 2.685883 -2.421825
C -4.259503 3.177619 -3.724095
C -5.330850 3.904642 -4.264509
C -6.452456 4.131214 -3.493401
C -6.518041 3.673090 -2.193546
C -5.437589 2.958516 -1.653468
N -1.376854 1.666308 -0.215924
N -1.887230 -0.213494 -2.215175
H -3.562207 -1.698662 -4.559938