197
Zn1 Si4 H116 C72 N3 Cl1
C 4.355511 2.764431 -2.082706
Zn -0.930615 0.370385 0.015250
C 0.163281 0.148038 -4.012212
N -0.496854 -1.502514 0.586615
C 0.206301 0.784622 -2.678232
C 3.708726 3.002009 1.738875
Si -2.847677 -5.839818 -3.804629
N -0.238734 -0.135227 -1.788345
C 0.752211 2.021242 -2.266468
C 3.330447 4.138114 2.691717
Si 1.286253 5.574846 -4.879980
C -0.260986 -1.128178 -3.838659
N 0.603866 1.632285 0.141161
Si -1.738205 2.712652 3.462499
C 1.185378 2.213131 -0.908667
Cl -3.022873 1.059054 0.026140
C 2.407741 2.910633 -0.466276
Si 2.340986 -1.852788 6.703866
C 2.597622 2.618230 0.826868
H 1.873699 1.351152 3.168139
C 1.452399 1.795848 1.259050
H 1.528055 -3.762847 3.273632
C 1.203179 1.229318 2.436492
H 1.133457 -5.090841 2.409268
H 3.944595 4.275178 -0.714696
H 0.618700 6.328088 -6.938801
C -0.011766 0.425211 2.726088
H 0.207784 -5.176126 4.512328
H -1.251930 4.930038 -7.527522
C 0.262672 -1.048985 2.827838
H -0.565093 -3.765892 4.236684
H 4.988944 3.318778 -2.623784
H -1.459613 5.706732 -6.105064
C 0.781880 -4.250184 2.817629
H -0.961174 -5.093887 3.375722
H 4.870268 2.203993 -1.436134
H -1.044247 4.128977 -6.118676
C -0.210548 -4.600458 3.811308
H 0.925774 -5.529445 0.251759
H 3.825919 2.173535 -2.691844
H 0.885721 4.467067 -8.422513
C 0.071307 -5.157850 -0.108960
H 0.136579 -5.081704 -1.106042
H 3.965363 2.203993 2.283356
H 2.268297 4.884350 -7.656836
C -0.995293 -6.099021 0.200714
H 4.489021 3.297457 1.187587
H -0.787610 -6.985366 -0.214453
H 1.418280 3.583768 -7.153191
C -0.195714 -2.221641 -4.883383
H -1.981788 0.297285 2.882286
H -1.070949 -6.202580 1.190990
H 4.110741 4.354370 3.277035
H -3.661053 3.114705 2.317386
C 1.106755 -3.071436 -4.747263
H -1.860145 -5.757885 -0.166811
C 0.646886 0.830310 -5.281535
H -0.987876 -2.821676 -4.774487
H 3.078260 4.948313 2.160848
H -5.396690 1.875040 3.348498
H -0.214999 -1.804359 -5.791987
C 2.217859 0.793760 -5.397237
H -4.284102 1.265868 4.379610
H 1.117139 -3.784168 -5.448283
H -4.165426 0.967374 2.776793
H 1.131974 -3.497857 -3.842062
C 3.113863 5.986951 -4.900398
H -5.148953 4.122885 3.944025
H 1.904851 -2.480539 -4.856159
C 3.508461 7.324084 -5.550373
H -3.963677 3.958409 5.053406
H 0.344262 1.783665 -5.274729
C 4.041019 4.841708 -5.332580
H -3.741159 4.933084 3.763665
C -1.360222 -3.613599 -2.341334
H 0.252288 0.364294 -6.074436
H -1.514501 3.705602 5.502604
C -1.929867 -4.539541 -2.875607
H 2.501198 1.247593 -6.241184
H 0.317560 2.587772 6.598373
H 2.621358 1.265868 -4.611142
C -1.584223 -6.869624 -4.726844
H 3.661256 -3.552682 7.404886
H 0.721058 3.270044 5.169109
H 2.527900 -0.156548 -5.410849
C -0.714921 -6.105113 -5.737538
H 0.479256 1.658784 5.267796
H 2.949200 -5.526399 6.258072
C -0.695637 -7.685914 -3.787614
H -1.839377 1.960324 7.149660
H 2.900246 4.244719 -1.970406
C -3.935491 -5.017741 -5.043324
H -3.112177 2.158305 6.145772
C -4.637163 -5.876673 -6.105064
H -2.076729 0.915594 5.921174
H 4.816864 -4.375064 5.451558
C -4.500686 -3.619691 -4.788099
H 0.090592 3.653823 2.484134
H 5.089818 -2.797309 5.771441
C -3.755994 -6.970137 -2.644202
H -0.136376 6.041777 2.827838
H 4.054370 -3.223729 4.583791
C -4.300420 -8.246352 -3.294177
H 4.398531 -0.963701 6.479267
H -1.538236 5.743283 3.610530
C -4.801826 -6.327461 -1.735599
H -0.130442 5.179798 4.216266
H 4.899937 0.233322 8.504058
C 0.986596 3.062926 -3.222714
H -0.732723 5.140202 0.786032
H 3.462474 -0.278383 9.085973
C 1.127523 4.001051 -3.954361
H 2.556086 3.857895 3.256617
H -2.247325 4.692461 1.197796
H 4.618081 -1.362709 8.701433
C 0.299758 6.842838 -3.893107
H -1.207427 3.589860 0.592060
H 4.196782 1.405978 6.632403
H -2.153868 -7.490979 -5.267923
C 0.192950 8.262209 -4.485231
H 1.578492 -2.081532 8.864777
C 0.476289 6.870251 -2.365156
H -0.077038 -6.738652 -6.176527
H -0.511689 -3.208500 8.633373
H 3.371983 0.717614 5.403916
H -1.300884 -5.687830 -6.431752
H 0.721058 -4.030882 7.949368
H -0.203131 -5.389336 -5.261117
H -0.314390 -3.184133 7.013540
C 3.239956 -3.473490 6.499686
H -0.038468 -8.215894 -4.325289
H -0.453834 -0.826637 8.912420
C 0.550461 5.396054 -6.578082
H -1.257864 -8.304224 -3.246535
H 0.821933 0.068845 8.425789
C -0.930022 5.006184 -6.581485
C 4.402981 -3.467398 5.488992
H -0.197197 -7.064559 -3.178475
H -0.250602 -0.488547 7.330020
C 3.655322 -0.564694 7.016943
H -3.134428 -4.700971 -5.550373
C 1.350041 4.506663 -7.537731
C -1.225228 0.943007 2.970764
C 4.207166 -0.485501 8.453013
H -5.186040 -5.288822 -6.697187
C -3.580947 2.904541 3.290647
H 3.277043 6.120969 -3.923734
C 3.431321 0.805943 6.397595
H -5.229060 -6.543717 -5.652463
H 1.795076 -4.825852 7.173482
C -4.430964 1.643555 3.464201
H -3.950326 -6.354873 -6.652948
H 4.500889 7.436781 -5.506134
H 1.780241 -4.630917 5.553649
C -4.159492 4.083289 4.080145
H -5.062913 -3.339472 -5.567388
H 3.063426 8.076411 -5.063742
C -1.291983 2.752248 5.288214
H -5.059946 -3.634920 -3.957764
H 3.214738 7.330176 -6.506619
C 0.184049 2.551221 5.608097
H -3.747093 -2.973969 -4.672396
H 4.990427 5.155432 -5.312162
H -3.012785 -7.235127 -2.028258
C -2.149418 1.868949 6.207027
H 3.931244 4.071105 -4.706426
C -0.809862 4.077197 2.576015
H -4.772157 -8.797653 -2.603366
H 3.805151 4.552351 -6.261602
C -0.639265 5.371688 3.379125
H -4.941270 -8.002684 -4.022421
C -1.289017 4.403104 1.167169
H -3.542377 -8.773286 -3.678717
C 0.896105 -1.399259 4.042712
H -5.220159 -7.031054 -1.157087
C 1.458333 -1.542415 5.084033
H -5.506465 -5.891903 -2.293692
H 2.581304 1.195814 6.748105
C 1.053351 -1.971881 8.020831
H -4.362725 -5.639096 -1.153684
C 0.007519 -1.926193 1.813741
H -0.599212 6.425555 -4.025824
C 0.160314 -3.205454 7.894920
C 0.240420 -3.372976 1.715053
C 0.219652 -0.692620 8.187578
H -0.349993 8.840922 -3.876092
C 3.404619 3.684281 -1.313625
C -0.106707 -3.762847 0.452537
H 1.108239 8.652079 -4.587321
C -0.535424 -2.544503 -0.245080
C 2.364721 -4.722292 6.360162
H -0.249118 8.216521 -5.383625
C -0.809862 -2.459218 -1.681151
H -0.100773 7.586028 -1.973809
C -0.483503 -1.304838 -2.412798
H 1.434598 7.059094 -2.143960
H 0.215202 5.983905 -1.984018