61
H26 Pd1 C31 N2 O1
H -3.385685 3.357595 3.776186
C 1.132945 -1.281556 -2.303793
H -2.796001 2.803471 5.157590
H 0.708309 1.178187 -5.887046
C 1.398771 -1.230289 -3.756500
C 1.984180 -2.143284 -4.622051
C 2.094308 -1.802956 -5.971244
C 0.919554 0.003400 -4.225330
C 1.028149 0.343729 -5.566263
C 1.622177 -0.582356 -6.432427
H -2.718819 -0.877962 6.547581
H 1.921238 -3.065006 -1.847308
H -0.661567 -0.199487 5.619979
H -1.520543 1.084378 6.037177
H -3.511125 -0.050048 5.429626
H -2.651559 -1.335005 5.015019
H -0.109593 -1.509532 3.795773
C 0.488657 -1.763688 1.900517
C 1.183639 -3.023556 2.049736
C 1.394312 -3.741299 3.344790
Pd -0.170238 0.374053 -0.117269
C 2.551214 -3.165359 4.163265
C -0.222199 1.995192 -3.169699
C 0.477045 -0.088226 -1.917658
C -0.836838 2.727116 -2.179206
C 1.640621 -3.369338 0.815960
C -1.465703 3.959714 -2.223865
C 1.227357 -2.339627 -0.102121
C 1.479583 -2.315630 -1.466842
C -1.950124 4.254229 -0.972143
C -1.619810 3.209247 -0.116344
C 2.424188 -4.579030 0.415368
N 0.540954 -1.359003 0.582785
C -1.875775 3.057627 1.231075
C -1.545295 2.027916 2.096165
C -1.866218 2.010463 3.513798
C 0.343303 0.730961 -3.065674
C -2.566979 3.111076 4.254931
H 2.302136 -2.979924 -4.303003
H 2.497356 -2.411620 -6.578055
H 1.703095 -0.370742 -7.355370
C -1.381978 0.841131 4.006553
C -1.478411 0.319731 5.410141
C -2.698176 -0.564904 5.619442
H -0.180105 2.403150 -4.026264
C -0.761175 0.147385 2.888924
C -0.126593 -1.083031 2.947202
O -0.923249 2.239312 -0.864016
H -1.548480 4.510566 -2.992740
H 0.563839 -3.691122 3.881499
H 1.576563 -4.696836 3.158918
H 2.645043 -3.671488 4.997141
H 3.381521 -3.230807 3.646215
H -2.429835 5.038511 -0.732606
N -0.876520 0.885854 1.746433
H 2.368031 -2.225094 4.370169
H 2.629183 -5.113519 1.211140
H 1.897395 -5.116792 -0.211917
H 3.259371 -4.300877 -0.014628
H -2.356439 3.774279 1.628178
H -1.976567 3.890994 4.316862