75
P1 H29 C41 S1 N2 O1
C -2.253684 3.262622 -2.284235
C -2.253684 -3.262622 -2.284235
H -3.809349 6.129380 -2.519892
C -2.627442 2.751709 -3.530501
C -2.627442 -2.751709 -3.530501
C -3.835854 4.767142 -4.025451
C -3.835854 -4.767142 -4.025451
H 2.467880 -2.024708 4.156801
H 2.467880 2.024708 4.156801
C -3.497523 -5.272135 -2.782135
C -1.917778 -1.109840 -1.142450
C -2.703406 4.529742 -1.915817
C -2.703406 -4.529742 -1.915817
C 2.091523 1.404863 1.355872
C 2.091523 -1.404863 1.355872
C 0.737246 1.566485 1.029362
C 0.737246 -1.566485 1.029362
C -0.524609 1.257648 1.784439
H -1.295686 0.000000 3.230137
H -3.638711 3.151520 -5.252431
C -0.524609 -1.257648 1.784439
C -0.507459 0.000000 2.631550
H -3.638711 -3.151520 -5.252431
C 2.856450 2.331967 0.567016
C 2.856450 -2.331967 0.567016
H -4.363706 -5.286739 -4.621210
H 1.979353 -2.010895 6.437501
C 1.968352 3.013184 -0.227557
C 1.968352 -3.013184 -0.227557
H 1.979353 2.010895 6.437501
H 1.748082 0.000000 7.582786
C 1.799013 4.073098 -1.197564
C 1.799013 -4.073098 -1.197564
H -3.982586 1.268896 -1.096896
H -3.982586 -1.268896 -1.096896
C 0.497660 4.109803 -1.569069
C 0.497660 -4.109803 -1.569069
H -2.346366 1.880650 -3.784297
H -2.346366 -1.880650 -3.784297
C -0.232186 3.010619 -0.924582
C -0.232186 -3.010619 -0.924582
H -3.809349 -6.129380 -2.519892
H -2.465899 4.888112 -1.068737
H -2.465899 -4.888112 -1.068737
C -3.497523 5.272135 -2.782135
P 2.870309 0.000000 2.166027
H -1.265369 1.182067 1.132467
C 2.484337 0.000000 3.927377
H -1.265369 -1.182067 1.132467
H -0.728336 2.026682 2.374271
H -0.728336 -2.026682 2.374271
C -1.917778 1.109840 -1.142450
H -4.363706 5.286739 -4.621210
H 0.304155 0.000000 3.198274
H 3.798337 2.450963 0.590734
S 4.809866 0.000000 1.903530
N 0.702339 2.480366 0.001286
N 0.702339 -2.480366 0.001286
H 2.485204 4.645384 -1.519570
H 2.485204 -4.645384 -1.519570
O -1.081825 0.000000 -1.134141
H 3.798337 -2.450963 0.590734
C -3.403542 3.501601 -4.401485
H 0.114460 4.749974 -2.157954
C -1.397635 2.454318 -1.366139
C -1.397635 -2.454318 -1.366139
C 2.359953 -1.199235 4.614774
C 2.359953 1.199235 4.614774
C -3.403542 -3.501601 -4.401485
H 0.114460 -4.749974 -2.157954
C 2.078097 -1.189171 5.971528
C 2.078097 1.189171 5.971528
C -3.217659 0.705491 -1.113974
C -3.217659 -0.705490 -1.113974
C 1.938642 0.000000 6.651397