15
H8 C7
C -0.524798 -1.296680 -1.203110
C 0.692530 -0.676739 -1.339413
C 1.089821 0.289742 -0.438733
C 0.660907 1.742076 1.582927
H -1.511450 0.247948 1.465617
H -2.173203 -1.378526 -0.058936
C 0.267812 0.650213 0.619760
H -0.799368 -1.958415 -1.827405
H 1.265706 -0.915312 -2.057913
H 1.933049 0.712904 -0.545086
H -0.050321 1.863974 2.246313
H 0.795600 2.577951 1.090896
H 1.491671 1.491313 2.037426
C -0.934858 0.019824 0.744471
C -1.331279 -0.950140 -0.163192