210
Zn2 H84 C112 N8 O4
C -1.584257 2.557271 7.030802
H 0.885584 2.637173 -8.823688
C -0.862281 3.183628 8.102358
H -1.599952 1.314659 -9.419450
C 0.344816 2.588956 8.164176
H -2.702890 2.935656 -10.693033
C 0.380487 1.576407 7.147858
H -3.342110 4.942387 -9.747104
C 1.477005 0.763612 6.862187
H -1.678427 3.808148 -6.226778
H -3.489073 1.222818 -6.167825
H -4.018427 -0.636966 -4.620296
H 4.133047 -1.844678 -0.884966
H 5.819559 -5.072896 0.837637
C 5.883766 -2.917383 2.401212
H 5.077608 -6.363265 -0.931541
C 6.016461 -1.695436 3.281807
H 3.802023 -5.435669 -2.725596
C 6.112059 -0.650742 3.927346
H 5.769620 -2.404909 -3.521897
H -3.383488 -5.141777 -5.337115
C 6.177693 0.531713 4.597411
H 6.253315 -0.894122 -5.432657
H -2.320500 -3.947842 -5.375792
C 6.174839 1.561253 5.177773
C 1.473438 -0.289807 5.956325
H 3.276950 2.040205 -8.714853
H -6.048804 1.039136 -2.608188
C 6.122047 2.773557 5.882279
H -7.251621 2.081533 -2.386603
C 2.119791 -2.185409 4.909466
C 0.767158 -1.864424 4.577536
C -2.738561 6.131271 -6.112211
C -0.054696 -2.621655 3.728654
C -3.578963 5.303782 -5.249585
C 0.503194 -3.954730 3.283605
C 4.137898 -0.629619 -5.581306
C -4.241012 4.573644 -4.602762
C 0.139353 -5.128460 3.964964
C 3.976096 0.253893 -6.657632
C 2.731901 1.023523 7.648781
H -1.176183 3.886213 8.660419
C 0.799975 -6.326529 3.593715
C 5.184620 0.635953 -7.444444
C 2.810377 0.692894 8.986149
H 1.045389 2.802487 8.769228
C 1.731694 -6.389440 2.604000
C 5.661181 -0.251692 -8.434594
H 5.061913 2.357057 -5.398642
C 3.968962 0.984949 9.700763
H 2.078413 0.267670 9.417681
C 6.755559 0.140010 -9.207133
C 5.034803 1.596153 9.102259
C 1.406377 -4.026366 2.237814
C 2.019913 -5.242343 1.917567
C 7.383364 1.345885 -9.025782
C 4.950620 1.934587 7.772517
C -0.877976 -5.101826 5.026087
C 6.909656 2.208733 -8.046324
C 3.800596 1.644369 7.029000
C 5.809571 1.872595 -7.252823
C 1.758804 -2.807174 1.455698
C 4.984864 -1.559511 -8.688624
C -1.297464 -2.204696 3.257607
C 2.567816 -1.207300 5.754513
C -2.012305 -2.849421 2.194355
H 0.580243 -7.125547 4.058238
C 8.553363 1.764681 -9.905232
H 5.271657 -3.575885 2.814867
C -3.076720 -2.086680 1.905066
C 5.288779 2.844734 -6.219400
H -1.751196 -4.884622 4.634928
C -3.085281 -0.988718 2.824142
H 6.765547 -3.346282 2.268526
C -4.059805 0.027964 2.908792
H 6.925351 3.312205 5.667360
H -0.922208 -5.982124 5.458665
C -5.115658 0.062404 1.851788
H 5.325876 3.284653 5.592567
H -0.641123 -4.420824 5.689667
C -6.065926 -0.941420 1.718640
C -6.969109 -0.883560 0.669930
H 1.884365 -8.438876 2.584775
C -6.920597 0.124397 -0.258704
C -5.993158 1.125007 -0.119821
H 4.020328 0.754428 10.620533
H 2.205401 -3.070758 0.622383
C -5.097109 1.108935 0.958478
H 5.823840 1.783049 9.597055
H 0.942658 -2.308476 1.242317
C -4.086915 1.054749 3.850058
H 3.756364 1.870299 6.107160
C 2.450816 -7.684401 2.318071
H -1.786866 5.989376 -5.882266
C -5.158463 1.992447 4.026872
H -1.775452 -3.667726 1.773426
H 3.435328 -1.142093 6.136785
H -2.949732 7.086879 -5.961530
H -3.710232 -2.244187 1.215442
C -4.840280 2.791925 5.057942
H 2.613474 -2.937588 4.600957
H 7.076595 -0.448692 -9.881578
H -6.095890 -1.660996 2.340144
C -3.544434 2.359353 5.538494
H 7.341986 3.045866 -7.912927
H -7.634011 -1.555378 0.592444
C -2.859128 2.955862 6.593414
H 2.649145 -5.270355 1.207739
H 4.024608 -1.413024 -8.819807
H -7.525572 0.129908 -0.990477
C -3.473378 4.113520 7.325485
H 5.364401 -1.973256 -9.490714
H -4.477866 1.819786 1.072835
C -4.395110 3.863712 8.349645
H 5.120413 -2.152346 -7.920123
H -5.953207 2.040205 3.507524
C -4.828866 4.928610 9.119706
H 8.253729 1.833562 -10.834862
H -5.363927 3.505072 5.406008
C -4.348024 6.216683 8.926315
H 3.289791 -7.708739 2.821031
H 8.891522 2.632580 -9.604417
C -3.471951 6.454093 7.869590
H -5.473792 4.772480 9.800386
H 9.266778 1.094240 -9.839110
C -3.042476 5.405266 7.053437
H -3.163756 7.334850 7.701898
H 2.643438 -7.745475 1.358681
C -4.860256 2.471399 8.643525
H -5.489487 2.490227 9.393575
H 5.977937 3.514256 -6.022061
H -5.304000 2.099902 7.852826
C -4.696171 7.360565 9.859948
H 4.488328 3.293837 -6.566424
C -2.113610 5.713853 5.913316
H 2.360926 -2.244187 1.983083
H -4.089768 1.911627 8.876840
H -4.957280 6.999630 10.733232
H -3.917122 7.945594 9.966770
H -5.440975 7.872121 9.483401
H -2.481732 5.346488 5.083024
H -2.016586 6.687369 5.824751
H -1.236110 5.314344 6.088702
N 0.701523 -2.190001 -3.637093
N -0.814768 1.561253 6.474611
N 0.397609 -0.694826 5.203647
N -1.977491 -1.079641 3.643097
N -3.114103 1.301342 4.791257
O -5.832354 2.181181 -0.973821
N 3.116860 -1.168268 -4.840907
C -1.902439 -1.009842 -4.548556
C -1.771171 -2.080710 -3.678385
C -3.011086 -2.727272 -3.141242
O 5.355840 -2.461392 1.146176
C -3.457683 -3.949678 -3.667215
O 6.059980 2.566455 7.269479
C -4.564902 -4.575576 -3.097945
N 1.519667 0.522529 -6.503237
C -5.255487 -4.021314 -2.032581
N -0.871984 -0.366953 -5.200464
C -4.828866 -2.805796 -1.554964
C -3.717366 -2.145458 -2.088302
C -6.412646 -4.750534 -1.375578
C -3.256500 -0.852793 -1.487507
C -0.542671 -2.602368 -3.229238
C -0.404269 -3.611703 -2.228404
C 0.919828 -3.792171 -2.012883
C 1.621828 -2.907740 -2.902974
O -2.945879 5.812582 -7.479173
C 1.286523 2.036072 -8.209614
C 0.614059 1.307312 -7.175706
C -0.752415 1.410633 -6.894925
C -1.521476 2.401141 -7.698281
Zn 1.118586 -0.787218 -5.031071
C -1.838232 2.143985 -9.026094
Zn -1.371516 0.276762 5.022924
C -2.504561 3.110614 -9.779359
C -2.872683 4.299039 -9.226865
C -2.564488 4.564919 -7.910371
C -1.888171 3.620792 -7.133457
C -1.434868 0.612533 -5.963416
C -2.868403 0.623095 -5.771440
C 2.747454 0.775092 -7.078397
C -3.153768 -0.384862 -4.920841
C 2.587791 1.710036 -8.150094
C 3.008706 -2.796153 -2.999539
H -4.855975 -5.408117 -3.451033
C 3.827706 -3.529964 -1.965953
H -5.304000 -2.400317 -0.839329
C 4.297133 -2.782377 -0.899331
H -2.053683 -5.224434 -4.450952
C 5.003413 -3.358680 0.154296
C 5.311608 -4.680734 0.136695
C 4.869291 -5.437047 -0.918781
H -6.257121 -5.715785 -1.420526
C 4.104511 -4.890132 -2.010097
H -6.482560 -4.475928 -0.438406
C 3.692157 -1.994379 -3.911049
C -2.741415 -4.625170 -4.807856
H -7.244487 -4.531033 -1.843349
C 5.131827 -1.943867 -4.053329
H -2.384708 -0.981371 -1.060624
C 5.394364 -1.113622 -5.091895
H -3.179451 -0.173168 -2.190921
H -3.907134 -0.554309 -0.818042
H -1.111976 -4.071827 -1.793875
C -4.964414 3.700234 -3.829457
H 1.312206 -4.393271 -1.390230
C -5.593646 2.921880 -3.162178
C -6.271390 1.961221 -2.321167