101
Zn1 H39 C52 N5 O4
C -0.383621 4.119795 -2.445750
C -2.949815 2.683004 4.846957
C 2.981019 4.296713 -0.734127
C -1.386754 -0.744117 5.098369
C -1.117786 1.360138 3.756044
C 4.046742 6.367461 -1.663526
H -1.016289 -1.955740 -1.396335
C -3.582483 3.366552 5.931375
C -2.004197 -0.279037 -2.043959
H 4.314019 -2.371229 -2.412056
H 2.069234 -4.825300 -0.723957
H -1.281874 -2.702281 5.406912
C 0.764992 6.016305 -3.204428
H 1.059334 -5.420389 1.455557
C -0.354864 5.267083 -3.250040
C 1.989727 0.003764 -2.802916
C 3.072367 6.496129 -2.391690
C 4.085650 5.047276 -0.782189
C -0.794686 2.152249 2.598075
H 4.549155 -4.782411 -6.048539
H -0.094354 -4.033189 3.414979
C -1.797819 0.478227 -4.262570
N -0.244908 1.598710 1.447945
H 1.419650 -4.500950 -5.250530
N -0.447903 -0.824535 3.024603
H 0.605979 -3.553365 -3.221698
N 0.996744 0.119029 -0.728195
H -1.672639 -4.766328 -2.048780
N -1.863793 -1.049704 0.232619
H -1.344464 -6.736554 -0.818657
H -3.479294 -5.146970 2.235965
H -3.870059 -3.328197 0.909916
H -2.178435 -1.715828 0.750347
H -3.832843 -2.109873 -1.160551
H -3.058079 -2.688878 -2.392636
O -2.239333 0.845467 -1.648342
H -2.178435 -6.780784 1.240389
O -1.706471 -0.614109 -3.301085
O -1.539001 3.310260 -2.509524
C -0.480044 -2.087088 3.546354
C 0.587371 -3.298710 1.650482
H -0.211076 1.894914 6.147015
H -3.264457 3.870501 7.858134
C 4.224363 -3.438100 -4.115584
H -1.767370 -0.417087 5.880041
C 2.414325 -2.812185 -2.610943
C -1.872251 -1.522826 -1.196435
C 3.711801 -2.813525 -2.966625
C 1.659861 -4.243615 -0.124256
C -1.105945 -1.986566 4.839641
Zn 0.052987 -0.419365 1.029781
C 1.105008 -4.573326 1.075637
C 1.492390 -2.861776 -0.279586
H -1.290332 4.192171 3.051308
H 5.129382 -3.408614 -4.322269
C 1.818873 -2.089769 -1.404156
H -0.368397 4.716224 0.808488
H 1.737675 1.923060 -3.235234
H -1.105945 2.985910 7.932259
C 3.322727 -4.093502 -4.919412
H -3.425162 2.599906 4.051048
H 2.972561 3.550172 -0.180364
C -0.013156 -3.237057 2.942035
H 4.721701 7.005439 -1.627308
H -4.431678 3.735132 5.839807
H 0.800516 6.781611 -3.729843
C 2.010027 -4.101544 -4.653286
H -1.075496 5.500294 -3.789650
C -2.824635 -3.799979 -0.728451
C 1.505923 -3.494392 -3.444508
H 2.410942 -0.351412 -3.552361
C -2.056638 -4.846745 -1.203734
H 3.126499 7.191740 -3.008286
C -1.828268 -6.019499 -0.478106
C -3.139277 -5.065212 1.372649
C -3.333814 -4.006383 0.569211
H 4.853647 4.804683 -0.316509
C -2.995489 -2.513300 -1.440166
C -2.357747 -6.020839 0.736525
N 0.832656 -2.272048 0.830018
H -2.437253 -0.360794 0.302707
H -2.636865 0.932585 -4.150991
H -1.741996 0.124391 -5.153815
H -1.077187 1.094760 -4.116229
H -1.405362 2.610628 -2.103428
C -1.060271 2.268855 6.078096
O 3.737175 -4.675188 -6.073332
C -0.935091 3.590380 2.440208
C -2.892300 3.459032 7.111356
C -1.757220 2.172354 4.897204
C -0.430987 3.870501 1.190250
C 1.619262 -0.687825 -1.624550
C 1.622645 1.230130 -2.624769
C -0.018231 2.638775 0.572473
C -0.994298 0.043973 3.923990
C 0.986594 1.352096 -1.289608
C 1.847631 5.720101 -2.436995
C 0.533239 2.492683 -0.693764
C -1.604974 2.910853 7.151696
C 1.783349 4.602299 -1.517032
C 0.653344 3.796785 -1.555773