82
Zn1 H30 C42 N8 O1
C -2.316711 1.899087 3.984084
C -3.653120 1.694812 4.245445
C -4.243584 2.283493 5.350420
C -1.618320 2.693128 4.868151
C -2.275970 3.265533 5.930277
H 1.082586 -3.969549 -6.616837
H 0.093456 -3.001073 -4.745286
C 2.874180 1.192941 -0.592100
C 4.067909 1.976945 -0.343004
N 1.070805 -1.684543 -0.324252
N -0.105187 -0.462013 2.020332
N -1.437332 1.474803 0.334612
N -0.208905 0.280078 -1.981879
N -3.564079 3.072516 6.146181
O 1.811766 1.269442 0.385066
C 1.808373 -2.202963 -3.998278
C 3.164093 -2.082785 -4.265117
C 3.686126 -2.689099 -5.401995
C 1.626451 -3.483954 -6.008261
C 1.028199 -2.908837 -4.891801
H -1.196694 1.674466 -4.717483
H 0.274088 -0.261129 -5.114866
H 3.727948 -1.593121 -3.678397
N 2.928774 -3.382495 -6.258391
H -0.918485 4.395421 -3.314870
H -2.087380 5.791165 -4.748418
H -5.391070 3.783681 -4.134732
H 2.810701 -3.779651 -2.029107
H 2.917227 -4.227266 0.416829
H 0.677999 -1.995975 4.722248
H 1.246043 -5.108931 2.311624
H 2.369695 -6.465340 3.835597
H 4.339939 -3.344244 5.285452
H 3.281369 -1.929511 3.774233
C -0.797818 1.125121 -4.052411
C 0.002638 0.071191 -4.267072
C 0.379938 -0.470015 -2.979123
C 1.534521 -2.141110 -1.537186
C 2.373785 -3.283206 -1.346200
C 2.433123 -3.531429 -0.013878
C 1.607854 -2.522939 0.619316
C -2.476669 3.173297 -2.874937
C 1.399728 -2.411307 2.001243
C -1.839821 4.236721 -3.480924
C -2.544457 5.069555 -4.331381
C -4.464062 3.901688 -3.968501
C -3.842614 3.037656 -3.101410
C 2.124177 -3.358351 2.903313
C 1.871780 -4.729273 2.918203
C 2.538818 -5.530774 3.823267
C 3.701937 -3.696232 4.674971
C 3.069787 -2.855531 3.784477
N -3.834755 4.897970 -4.586970
Zn 0.054734 0.076074 0.044498
H -0.854886 -0.107854 5.119869
H -3.319270 3.452717 2.020587
H -3.356137 3.938311 -0.403335
H 4.727420 1.800612 -1.046691
N 3.421802 -5.007201 4.686590
H -4.171636 1.148179 3.666467
H -5.158689 2.112586 5.535607
H -0.688102 2.845046 4.744062
H -1.787324 3.817591 6.529880
H -4.339044 2.356739 -2.662097
H 2.133836 1.184802 1.200936
H 2.504212 1.471005 -1.467755
H 3.144431 0.244812 -0.674881
H 3.839716 2.929143 -0.341373
H 4.445487 1.728722 0.525137
C 0.595555 -1.457345 2.645371
C 0.325553 -1.408650 4.063064
C -0.510552 -0.387275 4.280481
C -0.789260 0.209409 2.998421
C -1.650099 1.301996 2.781545
C -1.956529 1.881996 1.546953
C -2.837496 2.987469 1.345394
C -2.861088 3.250612 0.026750
C -1.997591 2.298142 -0.609387
C -1.754151 2.213502 -1.996050
C -0.941365 1.267543 -2.618986
C 1.205622 -1.567757 -2.777780
H 4.616729 -2.607715 -5.575879