77
Ni1 H25 C44 N5 O2
Ni -0.152083 -0.162413 -0.224555
C -3.659067 0.396561 1.979779
C -4.146269 0.590799 0.738469
H -4.144592 0.467062 2.794951
C -3.092528 0.336131 -0.173521
C -3.216004 0.287212 -1.544219
H -5.032953 0.851222 0.515893
C -2.189920 -0.140112 -2.379081
H -3.152869 -0.351615 -4.267278
C -2.363961 -0.476791 -3.751698
H -1.038125 -1.337193 -5.048913
C -1.212724 -0.999075 -4.177242
H 3.839476 -1.348704 -3.083577
C -0.288606 -0.961666 -3.090916
H 4.783708 -0.145867 -1.126671
C 1.041700 -1.283958 -3.180922
H -0.775528 0.691515 7.325462
C 1.949056 -0.965983 -2.183895
H -2.915415 -0.020691 7.891918
C 3.355347 -0.973177 -2.358340
H -4.287065 -0.976054 6.276437
C 3.867412 -0.337227 -1.280809
H -3.588669 -1.065260 4.056793
C 2.791322 -0.007742 -0.424599
H -5.569321 -0.961666 -1.471344
C 2.963687 0.574972 0.851792
H -7.527625 -0.532904 -2.663041
C -1.801333 -0.134356 4.305925
H -7.667304 1.318832 -4.040072
C -0.945099 0.307355 5.335505
H -5.873822 2.784969 -4.208968
H -3.870821 2.272756 -3.132760
C -1.358829 0.354836 6.654760
H 1.836475 -0.047549 -5.373324
C -2.614545 -0.088315 6.992643
C -3.435860 -0.629304 6.032480
H 2.632647 -0.904114 -7.390118
C -3.022130 -0.665274 4.707353
H 2.830991 -3.190368 -7.686891
C -4.522285 0.600870 -2.187568
H 2.191260 -4.626290 -6.002543
N 0.646687 0.193690 1.492976
C -5.613739 -0.210613 -2.050486
H 1.369946 -3.809052 -3.975836
N -1.911121 0.054126 0.527546
C -6.783134 0.051249 -2.747808
H 4.166325 2.753315 0.020388
N -0.917721 -0.452331 -1.965980
C -6.867221 1.146176 -3.556627
H 6.401194 3.425235 0.150476
N 1.590081 -0.394779 -0.962239
C -5.802865 2.000823 -3.676500
H 7.901350 2.180673 1.402117
N 0.390794 0.703025 5.018531
C -4.623134 1.707308 -3.015549
H 7.175017 0.274263 2.494269
C 1.558234 -1.846528 -4.468291
H 4.962497 -0.420678 2.348845
C 1.914975 -0.987565 -5.492681
C 2.384297 -1.496900 -6.688688
C 2.494923 -2.843617 -6.868014
C 2.121421 -3.689631 -5.870289
O 3.132978 1.305882 3.762451
C 1.640365 -3.207633 -4.662153
O 1.120479 1.183584 5.945012
C 4.343439 1.078552 1.124946
C 4.783708 2.226714 0.514216
C 6.113455 2.639650 0.602220
C 6.993434 1.910178 1.332754
C 6.560428 0.779282 1.976505
C 5.245488 0.359152 1.887556
C 1.939838 0.579288 1.750365
C 2.111922 0.878559 3.213790
C 0.824917 0.534686 3.773769
C -0.028802 0.162036 2.698179
C -1.364974 -0.040834 2.915440
C -2.285182 0.068514 1.843882