107
Cu1 H46 C54 N4 O2
Cu 0.106012 0.927343 -1.720272
H -4.678106 1.543299 -3.324617
C -0.821469 3.788822 -3.248278
C 0.359026 3.819275 -2.542335
H 4.290446 0.647334 1.131845
H 3.793677 -1.734427 0.584025
C 1.119314 4.994128 -2.244117
C 2.011362 4.676773 -1.290153
H -0.591780 -4.104968 -1.355597
H -2.842375 -3.197783 -1.807142
H -4.941626 -1.628642 -3.620107
H -7.035534 -2.365930 -2.917613
H -7.742406 -1.973244 -0.730956
H -6.312637 -0.902573 0.784255
H -4.209826 -0.889751 2.043829
H -4.879307 0.568797 1.931536
H -2.532562 -1.792127 1.494594
H -1.487389 -2.157566 2.649726
H -0.960350 -1.692754 1.213543
H 1.108631 -0.599644 2.031855
H 0.519274 -1.284040 3.352807
H 1.423785 0.030256 3.468958
H -4.090530 3.426589 1.923075
H -4.099433 3.364080 3.521848
H -4.859721 2.240517 2.673699
H 0.711571 3.287146 3.996498
H 1.404199 1.835009 4.063723
H 0.645692 -3.648170 1.225385
H 1.541301 -5.632436 2.038809
C -1.528341 4.067709 3.321697
H 4.219224 -5.666095 -0.985772
H 3.369910 -3.646567 -1.763544
H 2.057656 -8.400472 0.350136
C 3.410862 3.825687 3.308923
H 1.701549 -7.898795 1.828269
C 4.669700 4.386667 3.119491
H 2.769869 -9.072045 1.615918
C 5.276862 4.385064 1.882838
H 4.327837 -7.927646 -0.580082
C 4.628747 3.803247 0.803128
H 4.986635 -8.581588 0.723089
H 5.390816 -7.097395 0.280365
H 4.785434 -6.265542 2.544190
H 4.448913 -7.780188 2.940523
H 3.353885 -6.634186 3.156248
C -2.958110 -0.400897 -2.170433
C -2.742665 0.902179 -2.621678
C -3.754009 1.742047 -3.227497
C -3.109456 2.884843 -3.629624
C -1.758030 2.774250 -3.213947
C 1.860016 3.259898 -1.014080
C 2.613182 2.522610 -0.129982
C 2.618524 1.124969 -0.099693
C 3.583574 0.329980 0.583363
C 3.300469 -0.973097 0.300453
C 2.114633 -0.979508 -0.505126
C 1.359686 -2.115893 -0.827887
C 0.086604 -2.069412 -1.340653
C -0.817908 -3.188166 -1.453578
C -2.039354 -2.696107 -1.723005
C -1.911156 -1.269615 -1.858860
C -4.348708 -0.846475 -1.838460
C -5.212267 -1.484390 -2.721730
C -6.462202 -1.915543 -2.307107
C -6.877067 -1.691151 -1.008947
C -6.029532 -1.053237 -0.110106
C -4.779597 -0.641317 -0.518279
C -4.081627 0.028653 1.699936
C -2.840595 0.644129 2.290611
C -1.670784 -0.123613 2.350566
C -0.488509 0.430956 2.822551
C -0.447556 1.802953 3.142391
C -1.604904 2.578708 3.049360
C -2.824570 2.001700 2.676603
C -1.661881 -1.569338 1.885522
H -3.497612 3.614117 -4.099132
C 0.748963 -0.431350 2.928038
H -1.010205 4.532521 -3.809956
H 1.014262 5.846817 -2.650042
C -4.078066 2.830348 2.701188
H 2.625646 5.269809 -0.874258
C 0.861136 2.442470 3.501215
C 2.766308 3.245473 2.214465
C 3.380593 3.219828 0.959602
C 1.915213 -3.431792 -0.364575
C 1.379272 -4.048870 0.775458
C 1.911652 -5.241353 1.256423
C 2.979972 -5.879267 0.613481
C 3.496327 -5.257381 -0.522036
H 6.133299 4.779353 1.771542
C 2.981753 -4.050473 -0.996111
C 3.542621 -7.195166 1.166635
C 2.415543 -8.235383 1.247393
C 4.659017 -7.749735 0.323774
C 4.080343 -6.946732 2.579388
H -0.789419 4.457190 2.808523
N -1.531012 1.533362 -2.627377
H -1.375215 4.218373 4.279221
N 1.724161 0.323569 -0.782570
H -2.370534 4.492451 3.054682
N -0.603709 -0.911549 -1.653160
N 0.845646 2.756619 -1.806772
O 1.518154 2.697956 2.249180
H 2.999558 3.835303 4.164968
O -3.880427 0.011023 0.277655
H 5.118394 4.779353 3.857554
H 5.045393 3.806453 -0.051656