89
Ni1 H42 C36 N6 O4
H -2.456891 2.174900 -3.213115
H -4.004498 3.576961 -2.341249
H -4.213582 4.597901 -1.130157
H -3.322825 5.720473 -3.025868
H -3.780138 4.893558 0.964647
H -0.746026 0.230031 5.833470
H -3.108967 4.251428 2.268122
H 0.581039 2.087127 6.480881
H 1.487072 0.976103 5.767725
H 0.425420 -1.509263 5.674287
H -0.884461 -3.488779 5.751824
Ni -0.004874 0.048479 -0.395327
H 2.568774 -1.384533 -3.520860
H -2.297452 5.815176 -1.800764
H -2.035858 4.771137 -2.986525
H -1.137463 5.464083 1.889668
C -2.685070 3.278763 -0.807495
H -1.727482 6.043848 0.519797
C -2.405336 3.430287 0.519299
H -2.369056 6.485024 1.915982
H -1.228162 1.562797 5.088577
H 1.041216 2.285771 4.962144
H 1.065084 -2.599498 4.690709
H -1.767581 -2.315390 5.116625
H -1.110731 -3.424104 4.169509
H 3.769816 -4.971683 -0.006902
H 3.010811 -4.666787 1.367869
H 1.055537 -5.706206 0.537868
H 1.778263 -5.974145 -0.864713
H 2.280447 -6.731766 0.451958
H 4.163162 -2.823551 -2.886579
C 0.767211 1.628627 5.635214
H 4.409481 -4.070854 -1.915961
H 2.618420 -5.232693 -2.934367
C -3.530000 4.147255 -1.686494
C -2.724214 5.209541 -2.443250
H 2.335821 -3.978461 -3.887796
C -2.924706 4.577113 1.350722
H 3.691529 -4.812306 -4.046097
H 1.254120 0.405578 -6.495474
H 2.390241 -0.192666 -5.544047
H 1.319996 -2.308461 -5.603966
H 0.193422 -1.705598 -6.567969
H 1.703794 -1.830328 -7.082096
H -1.129825 1.013060 -6.462626
H -2.201025 1.590515 -5.421510
H -0.855820 3.496117 -5.057188
H 0.273618 2.904803 -6.025319
H -1.140327 3.355218 -6.625489
C -1.919382 2.149723 -1.277737
C -1.508850 2.328272 0.859698
C -1.069678 1.938836 2.112523
C -0.445288 0.759904 2.483590
C -0.289668 0.230955 3.821023
C 0.146640 -1.056076 3.686699
C 0.358589 -1.275047 2.266338
C 1.010665 -2.343570 1.673803
C 1.496619 -2.439197 0.381656
C 2.419837 -3.430340 -0.162890
O -2.686025 2.433600 3.730572
C 2.765447 -2.963295 -1.395120
C 1.987347 -1.777433 -1.635414
C 1.907151 -1.174570 -2.872250
C 0.915193 -0.282287 -3.212438
C 0.614455 0.118698 -4.567815
C -0.521666 0.847215 -4.511412
C -0.859638 0.961320 -3.102496
C -1.823909 1.807869 -2.607222
C -1.952797 5.747036 1.425725
C -0.487296 0.909118 5.161021
C 0.278392 -2.017193 4.837026
C -0.986617 -2.890997 4.981904
C 2.889561 -4.750634 0.389105
C 1.912879 -5.893763 0.102895
C 3.713488 -3.557150 -2.397755
C 3.028951 -4.477382 -3.406730
C 1.429789 -0.251566 -5.776338
C 1.135734 -1.648314 -6.305184
C -1.234845 1.539699 -5.631156
C -0.690652 2.950768 -5.855088
N 1.393987 -3.452977 2.572405
N -1.201429 1.572037 -0.258179
N -0.039054 -0.165872 1.538396
N 1.220131 -1.449901 -0.548742
N 0.016607 0.244814 -2.323785
N -1.590002 2.703849 3.274447
O 2.462895 -3.361046 3.163095
O 0.621424 -4.392611 2.668970
O -0.864412 3.620847 3.665656