96
Zn1 H37 C47 S2 Br2 N5 O2
H -1.310459 -3.865496 4.200783
H -0.801522 -5.549392 5.707632
H 1.397948 -6.273902 5.896109
H 3.076885 -5.315759 4.620540
H -2.940578 4.065592 -2.660284
H 3.067389 -1.868433 -0.176057
H 2.123314 -3.712640 -1.260358
H 1.506243 -1.515498 -1.999218
H 1.478727 -2.571816 -3.195106
H 1.489758 0.064009 -4.049932
H 1.840750 -1.079301 -5.077651
C 0.300074 -1.132738 3.111265
C 0.718902 -0.819570 4.457033
C 0.734628 0.529659 4.561166
C 0.335437 1.056327 3.278666
C 0.315316 2.397851 2.896193
C 0.052890 2.949250 1.637772
C 0.115510 4.342844 1.280159
C -0.197053 4.423000 -0.035610
C -0.454933 3.076256 -0.489487
C -0.817291 2.741590 -1.805869
C -1.096396 1.449153 -2.269591
C -1.456764 1.128529 -3.633353
H 0.318991 5.053560 1.838048
C -1.668277 -0.213119 -3.678013
H -0.245906 5.195231 -0.560720
C -1.419919 -0.723508 -2.348139
C -1.443484 -2.065778 -1.958564
C -1.045514 -2.616679 -0.735793
C -0.898004 -4.023322 -0.441243
C -0.407205 -4.111929 0.819815
C -0.273292 -2.764315 1.313484
C 0.179591 -2.426790 2.595808
C -3.262360 0.151000 2.380319
C -4.558803 0.390846 2.801166
C -5.442203 0.991084 1.920968
C -5.005039 1.342776 0.658294
C -3.695959 1.065647 0.317904
C 0.551060 -3.545121 3.520543
C -0.428436 -4.158780 4.288598
C -0.119479 -5.164146 5.187868
H -3.145699 5.948324 -4.008749
H -1.231880 6.987245 -4.814276
C 1.192071 -5.595373 5.309029
C 2.186747 -5.013776 4.544840
H 0.848506 6.030344 -4.461117
C 1.878458 -3.975353 3.660263
C -0.934947 3.890243 -2.763233
C -2.180138 4.455808 -3.028640
C 0.192804 4.471964 -3.339172
C 3.261700 -4.092915 1.254823
C 2.788284 -3.123587 -1.709937
C 2.058589 -2.078454 -2.575813
C 2.224226 -0.409470 -4.471758
C 1.919506 2.704805 -4.520563
S 3.203019 -3.172799 2.796997
S 1.797032 3.751306 -3.081200
Br 0.829987 3.640517 4.248223
Br -2.010852 -3.317192 -3.283277
N 0.057505 0.028094 2.417797
N -0.286561 2.192801 0.543410
N -1.077065 0.304352 -1.510976
N -0.658570 -1.872906 0.345999
N -2.831704 0.474606 1.154585
O 2.534532 -5.018374 1.021756
O 1.069112 2.643663 -5.370653
C -2.299785 5.590419 -3.821359
C -1.160839 6.191899 -4.332022
C 0.085877 5.632671 -4.106477
H -6.328662 1.152638 2.185520
H 5.004516 -3.091277 0.802842
H 4.677311 -4.260683 -0.196878
H 4.391069 -1.971579 -1.112075
H 3.390049 -3.711398 -2.273220
H 3.381425 -0.503918 -2.770544
H 3.689876 -1.665868 -3.790391
H 3.954632 0.239234 -5.430503
H 3.898976 2.471172 -4.986596
H 3.508760 1.801342 -3.636896
H 2.627694 0.762422 -6.129617
C 4.298663 -3.533688 0.304521
C 3.665392 -2.491039 -0.659257
C 2.980146 -1.146408 -3.379077
C 3.061938 0.594654 -5.262485
C 3.215979 1.926858 -4.538528
Zn -0.818880 0.182938 0.541069
H 0.941992 -1.447148 5.134110
H 0.942438 1.015938 5.310934
H -1.519853 1.740448 -4.342223
H -1.912649 -0.723880 -4.405116
H -1.101071 -4.699366 -1.010718
H -0.195125 -4.888261 1.291326
H -2.659808 -0.255372 2.954334
H -4.809606 0.149757 3.660431
H -5.570975 1.746662 0.061099
H -3.379760 1.298037 -0.533157