96
Zn1 H39 C47 S2 N5 O2
Zn 0.225328 0.296676 -1.130409
H 0.939861 -4.242869 -3.409885
H -0.890038 -3.197401 -4.690858
H -2.057351 -0.804440 -4.637680
H 2.973312 1.725471 1.923594
H -0.225375 -2.121363 0.637928
H -1.853798 -3.207183 1.851647
H -4.009797 -2.266873 1.990849
H -4.394055 -0.240743 0.872539
C 2.669852 0.166561 0.717070
C 3.752006 -0.700872 1.136397
C 3.687824 -1.801365 0.373757
C 2.556029 -1.644850 -0.519171
H 1.814307 -4.598695 4.158650
C 2.134592 -2.594698 -1.449636
H 0.732154 -4.015434 3.148261
H 1.351121 -2.837907 5.666413
H -0.418543 -1.375474 5.583518
C 2.876313 -3.898415 -1.477946
H -0.497472 -2.195952 4.175855
C 3.776100 -4.153607 -2.511014
H 0.673996 0.423221 4.454259
C 4.538385 -5.314016 -2.517114
H 0.424748 -0.293322 3.090390
H -3.343057 1.465021 -4.603270
C 4.399844 -6.243443 -1.517204
H -3.214279 3.516829 -3.226889
C 3.486349 -6.030070 -0.495084
H -1.959729 -0.103793 3.475151
H -0.086212 5.113767 0.725516
C 2.738188 -4.851687 -0.473187
H 1.791460 4.068298 1.984593
C 1.081517 -2.412260 -2.364930
C 0.619369 -3.394267 -3.321359
C -0.388633 -2.822867 -4.019090
C -0.566223 -1.483200 -3.484647
C -1.513782 -0.568079 -3.917738
H -2.682549 0.728913 -0.338051
C 2.441375 -4.552230 2.220767
C 2.138330 -2.605580 3.778581
H -0.935733 5.822973 -2.399496
H -1.986731 7.834430 -2.080425
C 2.426420 1.432618 1.228834
H -3.843631 7.955484 -0.653994
H -4.526987 6.072418 0.509675
H -2.763555 2.953132 4.103907
H -3.363828 1.937010 2.973085
N 1.959287 -0.438954 -0.281119
C -1.090267 -1.763581 0.704558
C -2.065036 -2.419719 1.408076
C -3.329764 -1.862136 1.481431
C -3.571327 -0.679718 0.815763
O 3.629667 -4.816349 2.294278
C -2.540478 -0.092910 0.119126
H -1.648168 0.698344 4.821815
H -0.617942 2.438346 3.539278
H -1.097745 1.730362 2.187922
C -1.747660 0.716808 -3.426464
C -2.761893 1.613098 -3.916800
C -2.703112 2.731444 -3.160885
C -1.635290 2.535678 -2.203518
C -1.242309 3.449577 -1.217215
C 1.667459 -4.021548 3.382871
C -0.198373 3.252099 -0.307396
C 0.280391 4.240831 0.627449
C 1.407202 -2.085903 5.014196
C 1.301686 3.680191 1.304691
C 0.025950 -1.536879 4.715459
C 1.455597 2.338812 0.796212
C 0.048798 -0.162486 3.983474
C -1.332038 0.512483 3.900578
S 1.522064 -4.595027 0.691263
N 0.343950 -1.268115 -2.483330
N -1.310437 -0.612588 0.068450
C -2.008748 4.738621 -1.090369
C -1.638198 5.874330 -1.789508
H 4.369103 -0.495079 1.814109
C -2.304315 7.081204 -1.614333
H 4.271481 -2.530991 0.386113
C -3.382937 7.154570 -0.761132
C -3.789004 6.043072 -0.071534
C -3.091732 4.841211 -0.214646
C -1.312929 1.879540 3.134810
C -2.649524 2.592415 3.205193
C -2.699789 3.758693 2.266282
H 3.899686 -3.510430 -3.175274
H 5.150082 -5.458303 -3.214376
H 4.909142 -7.009998 -1.515796
H 3.365879 -6.660286 0.198425
S -3.573197 3.437716 0.751323
N -1.074897 1.301170 -2.398401
N 0.536909 2.106486 -0.176014
H 3.089628 -2.691174 4.005371
H 2.019937 -1.979522 3.046596
O -2.130256 4.814066 2.501361
H 1.957625 -1.336345 5.389573