93
Zn1 H37 C46 S2 N5 O2
Zn 0.991346 0.507150 0.137081
H 1.759141 4.203772 -3.361938
H 1.890493 5.362066 -1.183103
H 1.793957 4.608359 1.337103
H 1.401482 3.972113 3.866214
H 0.912471 1.903498 5.089211
H 1.034328 -3.253357 3.679202
H 1.096048 -4.437754 1.544893
H 1.175176 -3.698729 -0.981249
H 1.455289 -3.059221 -3.543013
H 1.554990 -0.923718 -4.801631
H -0.991349 2.236304 -1.447294
H -3.146795 2.968802 -1.373083
H -4.618576 2.167785 0.218001
H -3.819383 0.606535 1.725968
H -1.616460 -0.068864 1.633947
H 3.471471 2.006276 -4.866937
H 3.423994 2.547901 -7.122951
H 1.399900 2.539744 -8.277675
H -0.564057 2.042167 -7.170446
H 2.771979 -0.506080 5.371213
H 2.745076 -1.302203 7.538174
H 0.796944 -2.236995 8.384179
H -1.148022 -2.256572 7.081034
H -3.249662 -1.421295 -4.596809
H -3.358858 -0.067233 -3.827983
H -1.551575 -2.142374 -3.174926
H -1.564235 -0.812783 -2.417974
H -3.689613 -2.615480 -2.343763
H -3.689613 -1.245104 -1.580874
H -2.026343 -3.450757 -0.987186
H -1.731987 -2.055910 -0.381624
H -3.923832 -3.649787 0.298149
H -3.855782 -2.139111 0.716699
H -2.056411 -4.122893 1.589420
H -1.765220 -2.591009 1.809085
H -3.713352 -4.109842 3.201283
H -3.814636 -2.498019 3.133009
S -1.260700 1.495485 -4.486383
S -1.822984 -1.398945 4.491664
N 1.607215 2.226515 -0.867261
N 1.324728 1.452742 1.951867
N 1.046039 -1.286541 1.169979
N 1.287696 -0.515379 -1.630744
N -1.101178 1.007207 0.101935
O -1.103869 -0.779992 -5.834055
O -1.634026 -4.044260 4.745465
C 1.625098 2.405480 -2.229181
C 1.741574 3.829366 -2.523057
C 1.805035 4.468222 -1.330931
C 1.715462 3.467032 -0.295836
C 1.669726 3.723977 1.073802
C 1.465734 2.796200 2.109194
C 1.325519 3.142057 3.506735
C 1.073259 1.999424 4.170479
C 1.098738 0.924332 3.200392
C 0.961847 -0.436582 3.484769
C 1.010273 -1.468116 2.528041
C 1.046356 -2.883519 2.831119
C 1.094782 -3.534774 1.652351
C 1.101429 -2.532605 0.614584
C 1.184197 -2.805701 -0.749117
C 1.280575 -1.871888 -1.781244
C 1.411136 -2.211708 -3.185316
C 1.482667 -1.043300 -3.862120
C 1.410186 0.018089 -2.886394
C 1.506881 1.393359 -3.183535
C -1.568033 1.911655 -0.781473
C -2.873012 2.353765 -0.749117
C -3.736774 1.872338 0.182083
C -3.270393 0.944235 1.086566
C -1.957818 0.546663 1.019183
C 1.482509 1.762871 -4.630055
C 2.652654 2.044614 -5.334763
C 2.623218 2.347239 -6.688075
C 1.422055 2.342997 -7.367551
C 0.254126 2.047388 -6.709151
C 0.271376 1.760424 -5.342778
C 0.856448 -0.875592 4.920900
C 1.979591 -0.827465 5.729206
C 1.966456 -1.329937 7.032055
C 0.800109 -1.871888 7.532237
C -0.350412 -1.900111 6.755990
C -0.330155 -1.411833 5.457001
C -1.681028 -0.184204 -4.960443
C -2.762392 -0.757315 -4.098408
C -2.131583 -1.439730 -2.868286
C -3.134926 -1.982497 -1.874156
C -2.426414 -2.630162 -0.693310
C -3.319927 -2.924304 0.516329
C -2.463129 -3.265430 1.731311
C -3.211364 -3.269671 3.080467
C -2.193619 -3.131981 4.190961