20
H14 C6
H 0.172772 1.917938 -1.069673
H 1.387385 -0.019714 -0.263307
H 0.312266 -0.915102 -1.029795
H -0.172772 -1.917938 1.069673
H -1.387385 0.019714 0.263307
H -0.312266 0.915102 1.029795
C -1.406596 1.299029 -2.017894
H -1.452142 2.112036 -2.555712
C -0.726126 1.570255 -0.825107
H -0.932141 0.598981 -2.505684
C -0.530752 0.499627 0.158470
H -2.313441 0.994300 -1.800551
H -1.200918 2.311073 -0.368430
C 1.406596 -1.299029 2.017894
C 0.726126 -1.570255 0.825107
H 1.452142 -2.112036 2.555712
C 0.530752 -0.499627 -0.158470
H 0.932141 -0.598981 2.505684
H 2.313441 -0.994300 1.800551
H 1.200918 -2.311073 0.368430