140
Zn1 H34 Os2 C66 N8 O9 F20
F 1.496925 -7.621238 2.972897
F 0.116707 -7.710343 5.338620
C -3.672141 -4.058704 -3.635461
C -4.999427 -4.448124 -3.438196
C -5.635560 -5.329270 -4.277767
C -4.975705 -5.830896 -5.378239
C 6.258282 0.092911 -0.418120
C -3.673730 -5.474477 -5.620629
C 7.002502 0.776046 0.512971
C 6.853530 0.493881 1.832662
C 5.951806 -0.484619 2.213224
H -3.324234 9.628754 -1.058280
Zn -0.933288 -1.135578 -0.790047
H -2.321186 -5.824295 0.798343
H -3.517720 -1.814588 -5.193123
H -2.702177 0.541734 -5.326686
H 0.731851 3.274275 -2.295779
H 1.607639 3.165370 -0.270032
H 1.039802 -0.354262 3.807359
H 0.454788 -2.489473 3.923355
H -3.860983 5.086069 -1.724428
F 5.039717 3.176920 2.382930
H -5.297608 6.594247 -2.771534
H -5.051424 8.853214 -2.431270
H -1.907938 8.087574 -0.056800
H -3.572604 5.133921 2.249980
H -3.841451 5.590995 4.500735
H 0.006350 6.815358 4.566046
H 0.149852 6.350034 2.365131
H 4.884303 -1.415267 -0.632500
F -5.669804 -3.959699 -2.364057
F -6.924594 -5.674137 -4.027741
F -5.623666 -6.674089 -6.203760
F -3.041480 -5.969503 -6.667630
H 4.983142 -4.832594 3.136857
H 4.092605 -6.284669 -1.146316
H 3.708520 -4.091706 -0.504967
H 1.615281 -2.017548 -1.003951
H 2.076692 -2.595078 -2.903240
H 0.538156 -2.472972 -3.324980
H 1.561260 -4.453074 -1.560010
H 1.123025 -4.722038 -3.076356
H 0.022156 -4.332618 -1.981649
Os 3.529591 -2.341790 2.081835
Os -1.323011 5.017425 0.053301
C -0.839159 -3.557078 1.642840
F -1.701574 -5.786343 5.911941
C -1.677207 -3.812841 0.517862
C -2.311315 -5.055355 0.240363
C -2.892732 -4.933249 -0.964495
C -2.604104 -3.641232 -1.485917
C -2.960917 -3.109905 -2.712773
C -2.675975 -1.845939 -3.233074
C -3.046861 -1.341013 -4.515612
C -2.600016 -0.052297 -4.592753
C -1.946091 0.229868 -3.348200
C -1.352682 1.487233 -2.997633
C -0.665766 1.807349 -1.866091
C -0.000834 3.153819 -1.626846
C 0.624000 2.987160 -0.240194
C 0.347549 1.525185 0.113442
C 0.813923 0.982307 1.297202
C 0.599002 -0.321261 1.774515
C 1.330290 -0.841038 2.984158
C 0.883811 -2.296413 3.040282
C -0.140555 -2.402018 1.930054
C -0.630452 -4.689036 2.613956
C 0.305239 -5.682388 2.347425
C 0.579060 -6.712041 3.235257
C -0.146985 -6.735142 4.439662
C -1.068288 -5.778093 4.719588
C -1.313502 -4.766590 3.803925
C -3.040016 -4.591681 -4.755424
C -1.462901 2.558138 -4.046401
H 5.479208 -7.038758 2.572447
C -2.553894 3.412882 -4.098106
H 4.903221 -7.840699 0.402123
C -2.636626 4.427685 -5.030221
C -1.653122 4.591043 -5.959094
C -0.553176 3.759400 -5.971338
C -0.478705 2.761099 -4.992588
C 1.646829 1.865102 2.170092
C 2.982144 2.127466 1.896800
C 3.771970 2.945908 2.687886
C 3.183509 3.510237 3.797990
C 1.876920 3.279225 4.123043
C 1.127641 2.465733 3.320805
C -3.745051 6.018367 -1.585299
C -4.604149 6.916014 -2.207184
C -4.458529 8.241032 -2.012177
C -3.446569 8.698106 -1.203745
C -2.610221 7.769108 -0.611101
C -2.836616 5.483739 2.739931
C -3.005203 5.746103 4.077099
C -1.926109 6.247729 4.796653
C -0.751550 6.465540 4.110673
C -0.674726 6.188326 2.808578
C 5.370941 -0.910341 0.007900
C 4.796475 -5.134560 2.255034
C 5.082534 -6.461228 1.931044
C 4.277297 -6.017355 -0.254119
C 4.043889 -4.705537 0.136643
C 1.148095 -2.732035 -2.591023
C 0.946195 -4.185760 -2.275174
N -1.879240 -2.944896 -0.520859
N -1.967187 -0.860839 -2.535395
N -0.428301 0.929504 -0.814489
N -0.178254 -1.242008 1.179123
N -2.737351 6.457290 -0.775952
N -1.678132 5.698251 2.090342
N 5.204452 -1.159504 1.328473
N 4.274029 -4.271565 1.382823
O 0.902673 -1.877291 -1.453865
O -0.879254 4.287428 -1.695853
O -0.014524 3.802303 0.752637
O -2.752124 4.066316 0.297571
O -0.213404 6.379736 -0.040762
O 2.734535 -0.713981 2.800029
O 1.956630 -3.227061 2.795260
O 2.902997 -2.182557 0.438443
O 4.555235 -2.639631 3.454287
H 6.342697 0.297521 -1.340785
H 7.619960 1.441030 0.231848
H 7.361527 0.962506 2.485755
H 5.857573 -0.685930 3.136791
F -1.765179 -4.311167 -5.002301
F -2.204493 -3.822742 4.134331
F 1.022888 -5.657637 1.222436
H -3.411730 -5.601534 -1.398420
F -0.155766 2.252872 3.661536
F 1.350068 3.840254 5.222406
F 0.631454 1.993809 -4.977523
F 3.930504 4.340230 4.583831
F 3.547540 1.594488 0.804367
C 4.774157 -6.931502 0.642846
F -3.541253 3.275925 -3.215794
F -3.701865 5.279129 -5.015065
F -1.730294 5.584395 -6.865761
F 0.425348 3.922759 -6.858090
H -1.996485 6.430888 5.726036