64
Zn1 H22 C34 N6 O1
C -1.442026 -1.928038 -3.696972
H 2.478107 2.576273 3.524450
C -2.207213 -2.422042 -2.704114
H -1.509786 -2.144512 -4.618727
H -2.921166 -3.042784 -2.791640
C -1.731244 -1.824427 -1.474632
C 0.607285 0.712197 4.385544
H 3.644892 3.511550 1.539044
C -2.238613 -2.027949 -0.186882
H -2.711277 -2.522878 2.571439
H 4.444784 3.468995 -3.178957
C -0.516531 1.079462 5.141170
C -1.706454 -1.465488 1.003371
H -1.851888 2.041566 -1.373015
N 2.891605 2.419932 -0.883112
H -1.303202 -1.212936 4.136185
C -2.060125 -1.873458 2.334678
H -0.711546 2.911160 -0.936919
H 3.631671 2.158128 -6.941098
H 4.829857 3.521726 -5.493337
C -0.503310 -1.013115 -3.107874
C 2.339283 2.328347 2.617325
H 1.950905 0.720523 -6.129498
C 0.721319 0.919419 7.167436
Zn 0.148338 0.398958 -0.503844
C 2.975561 2.837152 1.537812
C 2.438443 2.157203 0.381408
C 2.431832 1.795489 -1.952616
C 2.952423 2.061918 -3.306099
C 2.226901 1.257081 -4.166384
H -2.600548 -4.623780 -0.815618
N -0.690061 -0.964084 -1.772166
H -4.388737 -6.030857 -0.330105
N -0.729230 -0.514486 1.070859
C -1.291633 -1.159280 3.188543
C 3.944025 2.921336 -3.770521
H -6.267823 -5.221394 0.762405
N 1.493612 1.278358 0.755061
C -0.453730 -0.304488 2.392773
H -6.376899 -2.972476 1.350775
C 4.167136 2.939838 -5.139978
H -4.616805 -1.536721 0.853242
C 0.516388 0.589159 2.905212
C 3.444919 2.127600 -6.010399
H 2.658248 0.359734 6.919985
N 1.451799 0.865764 -2.023091
C 1.405524 1.332939 2.132027
C 2.451664 1.270957 -5.539918
H 2.559088 0.137710 4.584165
N 0.392437 -0.332241 -3.859284
O -1.142067 2.077645 -0.777465
C -3.398788 -2.944723 -0.000462
C -3.362429 -4.278718 -0.364447
C 1.265047 0.501274 -3.337006
C -4.430054 -5.115008 -0.079440
H -1.334603 1.267257 4.695603
C -5.545606 -4.638581 0.561790
H -1.237095 1.415273 6.997814
C -5.605102 -3.308288 0.908863
H 0.762636 1.004529 8.112761
C -4.555657 -2.457196 0.625062
C 1.846787 0.539203 6.460096
C 1.790596 0.418940 5.067509
C -0.460340 1.173822 6.505989