13
H8 C4 O1
H -1.486216 0.501178 -1.161550
H -0.957362 -1.670032 -0.799941
C 0.087125 1.217205 -0.079813
H 0.614327 -1.414704 -1.054906
C -0.507836 0.353162 -1.099494
O 0.589537 0.354087 0.924188
C -0.200439 -1.059466 -0.618079
H -0.859855 -0.932727 1.282113
C 0.001187 -0.897573 0.796599
H 0.597800 -1.604350 1.149748
H 0.817606 1.759314 -0.469399
H -0.595427 1.827771 0.296678
H -0.101279 0.520605 -1.987250