110
H44 Rh1 C58 N5 O2
Rh 0.351338 0.935828 -0.720590
C -0.001976 2.906194 1.560484
C 1.282107 2.715112 2.033004
C 2.266164 1.962565 1.408742
C 3.635966 1.818599 1.828931
C -2.376232 1.699500 -1.844226
C 4.233588 0.926012 1.046388
C 3.241435 0.439147 0.126085
C -2.698423 2.559368 -0.781771
C 3.411236 -0.620964 -0.786523
C 2.434589 -1.107829 -1.614843
C 2.514241 -2.344625 -2.339633
H -3.038454 -4.861406 -4.146295
C 1.683417 3.322386 3.363753
H -3.059531 -4.710896 -7.733691
C 2.270703 4.555255 3.465285
H -4.185083 -4.936006 -6.665462
C 2.697642 5.053899 4.685781
H -2.897382 -5.829902 -6.647135
C 2.497356 4.317057 5.826331
C 1.860291 3.127378 5.754090
C 1.437387 2.653600 4.514562
C 2.989718 4.826172 7.199019
C 4.752526 -1.301528 -0.824504
C 5.093744 -2.238614 0.124777
C 6.253178 -2.983309 0.014962
C -4.056986 3.165332 -0.721977
C 7.128646 -2.771286 -0.983894
C -5.152384 2.335567 -0.680310
C 6.840186 -1.772689 -1.874080
C 5.679680 -1.089506 -1.789460
C -6.425026 2.870857 -0.583840
C -6.626066 4.247692 -0.513040
C 8.380342 -3.584038 -1.146953
C -5.493989 5.038194 -0.591864
C -4.266991 4.512065 -0.680565
C -8.013871 4.843186 -0.395434
C -0.514874 -0.411559 0.528736
C -0.422915 -2.428387 3.296968
C -1.256769 -3.581420 3.636795
C -1.648022 -4.125872 4.877632
C -1.679509 -4.200472 2.456253
C -1.099049 -3.441381 1.325910
C 0.417563 -1.420627 1.108499
N -1.278244 0.885440 -1.911624
O -1.196771 -3.621992 0.157114
N -0.520479 2.403623 0.378703
N 2.065027 1.102698 0.332581
N 1.197352 -0.555525 -1.799157
N -0.343875 -2.404829 1.918498
O 0.144922 -1.675839 4.027596
C -3.237326 -4.949094 -6.819694
H -3.006446 0.047822 -4.430764
H -3.953359 1.912831 -3.227903
H 1.073717 -3.256843 -3.471694
H -1.914230 -3.360237 -2.750398
H -1.754553 -2.838034 -7.295343
H -0.734776 -1.313307 -5.893495
C -0.739155 -1.103903 -3.209631
C -1.495343 0.007250 -2.955454
C -2.668286 0.424750 -3.651157
C -3.187647 1.442980 -2.988797
H -2.740619 -5.583851 5.659477
H -3.437448 -6.568053 3.660325
C 1.314239 -2.523927 -2.953511
H -2.832659 -5.662378 1.667358
C 0.486266 -1.397069 -2.668596
C -1.332113 -2.127368 -4.154015
C -1.928906 -3.208418 -3.666526
C -2.588303 -4.135034 -4.513188
C -2.559065 -3.954422 -5.895361
C -1.844405 -2.936193 -6.375963
C -1.224886 -2.013504 -5.529102
H -2.915052 4.051375 1.639840
H -0.942132 4.112888 3.011530
C -2.460189 -5.216084 4.852050
C -2.894281 -5.812887 3.637896
C -2.526386 -5.294611 2.464612
H 4.036386 2.275363 2.533806
H 5.125490 0.664257 1.086016
H 3.247016 -2.913943 -2.379811
H 2.385573 5.068296 2.697778
H 3.117295 5.882356 4.732194
H 1.707292 2.628733 6.523784
H 0.968730 1.851319 4.475163
H 3.415990 5.679495 7.090739
H 3.616576 4.199267 7.567618
H 2.241252 4.917786 7.793856
H 4.533861 -2.372109 0.855119
H 6.430680 -3.645550 0.643805
H 7.449587 -1.563284 -2.544178
H -5.039303 1.414187 -0.720233
H 5.507764 -0.436426 -2.429504
H -7.160154 2.301538 -0.563400
H 8.413719 -4.259368 -0.465755
H -5.589099 5.962192 -0.580579
H 9.146304 -3.010793 -1.067174
H -3.533215 5.082693 -0.716555
H 8.381288 -4.001538 -2.011049
H -8.666615 4.139063 -0.392345
H -8.176104 5.425592 -1.141362
H -8.079309 5.343139 0.420443
H -0.938699 0.070071 1.256169
H -1.212016 -0.878793 0.043704
H -1.362602 -3.754179 5.681117
C -1.799699 2.856461 0.286693
C -2.102863 3.639110 1.450367
C -1.025275 3.669212 2.198305
H 0.888124 -1.878700 0.393305
H 1.074369 -0.975643 1.667200