158
Ni1 H77 Pt1 C72 N6 Cl1
Ni -0.652515 -0.019763 0.121356
C -6.233065 0.908909 1.099565
H 1.795228 1.470774 -9.342503
C -8.353998 -2.533032 -0.492047
H 2.252572 -2.481701 3.337431
H 1.747588 2.404440 -8.043129
H -2.692460 -0.704544 4.661322
C -7.429782 -3.459762 -1.281478
H -0.849745 -0.803044 -8.249067
H 0.188807 -0.597721 -9.450376
H -4.617116 -0.167651 3.214848
C -8.975223 -3.265537 0.748488
H -5.162118 -0.166264 -2.110136
C -9.457340 -2.094639 -1.448190
H -1.013626 0.439995 -9.244437
H -3.591903 0.367854 -3.948873
C -8.430222 2.096455 1.675212
H -3.910138 2.561207 -8.146098
H 1.318828 2.496003 -3.738031
C -9.636466 1.616442 2.474450
H -4.994425 3.683549 -7.788157
H 4.114343 -3.622078 2.636259
C -7.570796 2.974628 2.572516
H -4.777186 2.437736 -6.807497
H 5.951342 -4.777716 1.841924
C -8.927583 2.891389 0.493517
H -2.351358 4.489582 -8.391263
C -1.120340 1.497133 -4.497552
H 7.115663 -3.906479 -0.006620
C -0.260914 0.964402 -5.442909
H 6.475382 -1.903189 -0.884311
C -0.371439 1.325105 -6.773174
H 3.045302 3.980435 -3.384994
H -4.666662 5.149946 -5.831740
C -1.343295 2.264321 -7.121308
H -3.304158 5.097228 -4.998179
C -2.200815 2.846995 -6.206843
H 6.406780 4.889130 -1.384447
H -4.359860 3.898584 -4.885403
Pt 4.701401 0.363137 -0.357451
C -2.067423 2.462707 -4.872655
H 6.189542 2.906650 -0.192945
H -1.688209 -3.029692 4.676032
C 2.180159 -0.612981 0.787715
C 0.529910 0.720233 -7.861706
C 2.904287 -1.496704 1.627650
H 0.386990 -3.039404 8.118148
C 1.610385 -0.182912 -7.283117
C 2.052484 -1.887928 2.624491
H 1.595140 -0.708706 5.053586
C 1.212114 1.856449 -8.651138
C 0.802410 -1.235888 2.387662
C -0.369534 -0.138518 -8.788430
H -1.585306 -5.561551 5.391913
C -0.274254 -1.246986 3.262901
C -3.271762 3.843091 -6.660398
H -1.810167 -6.350937 6.764837
C -1.514799 -0.748938 2.871127
C -4.331276 3.062030 -7.415506
H -0.365722 -5.759938 6.406897
C -2.673404 -0.603270 3.714985
C -2.667687 4.905778 -7.562605
H -3.403249 -3.100446 7.186521
C -3.719578 -0.300834 2.934379
C -3.963495 4.563110 -5.488509
H -3.753879 -4.654244 7.029616
C -3.214594 -0.218982 1.589895
H -3.277479 -3.809366 5.754758
C -4.032097 -0.112159 0.454290
H -0.645846 -4.716674 8.755577
N 0.848145 -0.524193 1.201063
C -3.469945 -0.015046 -0.824490
H -2.168420 -5.205010 8.824223
N -1.850185 -0.411820 1.568810
C -4.230279 0.002989 -2.028741
H -1.819695 -3.652599 8.990936
N -2.137930 0.238833 -1.081423
C -3.380382 0.305425 -3.025582
H 3.721790 -1.786654 6.053859
N 0.564210 0.617572 -1.235387
C -2.090290 0.516297 -2.425908
H 3.540758 -2.992235 7.088455
C -0.994570 1.040704 -3.070202
N 4.939468 -1.536936 0.298365
H 4.407806 -1.710351 7.495429
C 0.219297 1.205795 -2.437676
N 4.558348 2.249060 -1.095152
H 3.304463 0.347044 8.162278
Cl 7.089938 0.566935 -0.544022
C 1.313111 1.971596 -2.944677
H 1.741871 0.521847 7.858273
C 2.357380 1.803730 -2.061593
H 2.784234 0.419185 6.652062
C 1.913375 0.881163 -1.049552
H 2.023900 -2.725869 9.074292
C 2.755650 0.236059 -0.188532
H 1.507482 -1.248374 9.412619
C 4.184850 -2.105737 1.287851
H 3.068169 -1.591042 9.505782
C 4.596460 -3.284959 1.890957
H -5.710930 -1.985041 -0.281205
C 5.678841 -3.963359 1.434950
H -9.222951 -0.205109 0.571970
H -5.764287 1.659449 1.449660
C 6.374385 -3.440339 0.361128
C 5.979926 -2.254181 -0.153719
H -7.052473 -2.972812 -2.041489
C 3.603642 2.587566 -1.983630
H -7.940482 -4.229724 -1.605096
C 3.706545 3.770950 -2.737758
H -6.705654 -3.769134 -0.697985
C 4.764153 4.624152 -2.531819
H -8.254906 -3.599881 1.327078
C 5.682652 4.302294 -1.565869
H -9.524036 -4.017464 0.444484
C 5.549260 3.113360 -0.864697
H -9.531658 -2.637081 1.253528
C -0.081788 -1.776943 4.639747
H -10.105244 -1.541098 -0.962763
C -0.958364 -2.713384 5.195781
H -9.907062 -2.885411 -1.811034
C -0.788766 -3.193396 6.485349
H -9.066692 -1.574394 -2.178782
H -1.914975 5.334460 -7.106598
C 0.276465 -2.723095 7.230651
H -10.166223 2.389179 2.763745
H -3.346081 5.580015 -7.773447
C 1.200681 -1.799140 6.725611
H -9.329665 1.119782 3.263881
C 0.989159 -1.341324 5.422314
H 4.855622 5.417699 -3.046666
H -10.189090 1.030993 1.915474
C -1.699642 -4.294928 7.029616
H -6.812367 3.324233 2.062573
C -1.331862 -5.610108 6.333347
H -7.237316 2.444672 3.327624
C -3.166954 -3.931450 6.720708
H -8.108175 3.721007 2.910844
C -1.571967 -4.483604 8.534929
H -9.459246 3.650253 0.807328
C 2.412642 -1.371845 7.539559
H -9.482113 2.318426 -0.080169
C 3.622698 -2.019724 7.000196
H -8.163438 3.221571 -0.026233
H 0.407951 0.345657 -5.174698
C 2.574618 0.104263 7.554269
C 2.237327 -1.771393 9.015452
H -1.419519 2.518200 -8.033322
C -5.514654 -0.157940 0.566086
H -2.623858 2.856706 -4.213651
C -6.204481 -1.253923 0.071343
H 2.187782 0.338720 -6.684914
C -7.584135 -1.320514 0.068891
H 2.147764 -0.561650 -8.008805
C -8.273962 -0.203722 0.591092
H 1.191153 -0.909868 -6.773174
H 0.528004 2.414151 -9.077725
C -7.620342 0.900585 1.133888