168
Ni1 H82 Pt1 C78 N6
H -3.052988 -1.662455 3.026121
H 5.564144 4.319661 2.701051
H 4.958905 3.620322 4.822257
H 2.973001 6.263387 -5.075945
H 2.548675 8.195374 -4.120705
H 5.904909 5.072666 -4.881537
H 5.001820 6.104065 -5.641737
H 6.049569 5.247082 -6.434103
H 5.378300 2.677807 -4.934685
H 5.858030 2.845514 -6.417105
H 4.494473 2.134436 -6.110666
H 4.439816 4.200589 -7.981627
H 3.412521 5.230311 -7.397929
H 2.608065 -7.589227 -6.200646
H 2.391796 -7.183376 -4.702246
H 3.825885 -7.554009 -5.213641
H -1.827106 -3.799045 3.271795
H -5.190694 -8.179557 1.462413
H -4.330794 -7.901163 0.181670
H -5.844797 -8.281858 0.042204
H -7.499394 -6.894919 1.105179
H -4.747389 -6.440433 5.465123
H -1.060498 -4.942808 4.958967
H -1.279331 -6.479006 4.731555
H -1.444242 -5.868551 6.166378
H -4.437037 -4.104272 5.543456
H -3.000798 -3.483755 5.444161
Ni -0.172103 -0.473746 -0.839208
H -3.376600 -4.399436 6.658563
H 2.555070 3.684050 -0.721150
H 0.890343 1.523982 -5.304987
H 0.565600 -0.855783 -5.774261
H -0.423660 -5.078650 -2.769486
H 2.890778 2.681161 5.166081
H -1.561756 -5.284930 -0.615677
H -4.027944 -0.149736 4.275608
H -5.015347 1.352920 5.715329
H 0.451937 4.616502 -2.462628
H -3.887839 3.346959 6.183453
H -1.815041 3.685728 5.292531
H 3.152549 2.332330 -4.346064
H 4.131837 3.860143 0.932100
H 0.937652 5.225280 4.679499
H 1.224614 9.017139 -3.948798
H 1.381636 8.025990 -5.154701
H 1.396151 6.387490 6.635080
H 0.784391 3.038378 8.768979
H 1.319520 5.294040 8.678926
H 0.324391 1.876167 6.815372
H -0.900068 6.288543 -3.102151
H -0.681655 6.862102 -4.544902
H -0.896388 7.838158 -3.337576
H 0.910191 6.691040 -1.361838
H 0.997951 8.217176 -1.707289
H 2.277572 7.316588 -1.805337
Pt 0.300438 2.357084 3.777342
H 3.057475 3.704175 -7.434286
H -1.337305 -3.165111 -5.594284
H 1.111549 -5.751156 -7.396141
H 2.282546 -3.886252 -4.079982
H -2.386736 -6.158685 -6.730331
C 3.876471 3.648832 1.802811
H -3.380567 -5.130640 -7.377100
C 4.748157 3.898716 2.849415
H -2.564162 -4.734851 -6.098138
C 4.374087 3.511312 4.107515
H 3.645782 -6.366642 -7.694334
H 4.849549 -5.600220 -7.044158
H 3.609997 -4.803611 -7.581116
H 5.142735 -5.731031 -4.847176
H 4.002543 -5.335242 -3.847040
H 4.525988 -4.292104 -4.893473
C -1.838324 -0.015570 2.916169
H -3.917809 -4.367572 -0.103919
H -4.752569 -6.514224 3.150383
H -6.387585 -6.462235 -1.222725
H -4.917273 -5.922218 -1.236234
H -6.090910 -4.989766 -0.775297
H -7.309297 -5.340274 1.039359
H -6.787731 -6.141914 2.280441
C 3.260015 4.281088 -4.877656
C 4.380164 4.163693 -5.918206
C 5.430906 5.247082 -5.698022
C 2.993962 -7.136418 -5.447962
C 5.093706 2.833775 -5.837133
C 3.764153 4.341463 -7.314648
C -3.262187 -5.206108 3.468108
C -5.202331 -7.810601 0.575509
C -3.034912 -5.461023 4.952130
H -1.412300 -5.917186 -9.507402
C -3.809187 -6.645036 5.470948
H -0.774857 -6.631619 -8.265770
C -1.571595 -5.710907 5.226485
H 0.044848 -5.554939 -9.056988
C -3.503959 -4.253531 5.719801
H -2.555301 -3.111445 -8.384875
C 2.627531 3.088690 2.032305
H -1.384380 -3.386485 -9.389697
H -1.092760 -2.682115 -8.018463
C 0.809096 1.648085 0.916774
C 3.128367 2.956201 4.309309
C 1.805548 2.691224 0.902588
C -2.328099 0.885017 3.943001
C 2.001969 3.009868 -0.398487
C -3.585054 0.638488 4.491939
C 1.208090 2.126051 -1.182704
C -4.182305 1.530690 5.345111
C 1.170111 2.104249 -2.570481
C -3.505211 2.701286 5.635192
C 0.719791 1.004089 -3.252907
C -2.257720 2.890795 5.094698
C 0.754690 0.849799 -4.678047
C 0.585279 3.435844 5.553165
C 0.558483 -0.451609 -4.936214
C 0.906785 4.787564 5.499600
C 0.334461 -1.097282 -3.693227
C 1.181026 5.483549 6.671753
C 0.157533 -2.462418 -3.532846
C 1.135262 4.827814 7.895499
C -0.297902 -2.995727 -2.348996
C 0.815258 3.476094 7.948879
C -0.613206 -4.389374 -2.175947
C 0.539516 2.780109 6.778699
C -1.232132 -4.500061 -0.989356
C -1.295698 -3.186913 -0.399895
C -1.914445 -2.886717 0.790036
C -1.751294 -1.632268 1.382199
C -2.383715 -1.207968 2.567236
C -0.848842 0.296365 1.932665
C 0.075734 1.309317 2.055408
C 1.706920 3.294970 -3.310946
C 1.150578 4.532649 -3.069991
C 1.638025 5.669704 -3.738411
C 2.659910 5.513736 -4.621877
N 2.239559 2.796879 3.293647
C 2.768073 3.167512 -4.202002
N -1.637940 2.010333 4.305556
C 0.997650 7.036517 -3.370785
C 1.595359 8.176926 -4.230137
C -0.510410 7.002976 -3.612339
C 1.326207 7.343421 -1.930095
C 0.424631 -3.384808 -4.674919
C -0.524701 -3.612890 -5.644312
C -0.306062 -4.486644 -6.692116
C 0.938485 -5.144056 -6.712695
C 1.923210 -4.919329 -5.750922
C 1.643650 -4.042220 -4.737045
C -1.394387 -4.687893 -7.820366
C 3.234835 -5.727677 -5.795645
C 3.894949 -5.613636 -7.152128
C 4.337881 -5.219525 -4.739874
C -2.728985 -3.924825 1.471417
C -3.743720 -4.590623 0.782865
C -4.494099 -5.580095 1.392647
C -4.242380 -5.860166 2.731254
C -2.500879 -4.241792 2.809338
C -5.573238 -6.358256 0.642402
C -5.758804 -5.890353 -0.776084
C -6.916880 -6.165393 1.329596
C -0.829841 -5.804823 -8.751570
C -2.541425 -5.229587 -6.920457
C -1.633844 -3.344558 -8.460058
N 0.530267 1.252296 -0.373102
N 0.370466 -0.191663 -2.654883
N -0.675995 -2.279617 -1.241311
N -0.859991 -0.671305 0.934773
H -3.530831 -6.841253 6.369101
H -3.644771 -7.406426 4.910693