102
H41 Ru1 C50 N5 O5
H 3.113332 1.974694 4.335805
H 0.052555 -0.394022 -5.092781
C 3.931945 -0.993014 9.029745
H 2.454976 -0.395888 -4.495352
H 3.119107 -1.967566 6.852134
H 2.238412 -1.945166 4.690361
H 2.974730 -1.177994 9.125175
H -3.055866 -1.973165 -4.188222
H -4.413003 2.152021 2.699710
H -4.065056 -2.006764 -6.288707
H -6.314438 2.138954 4.038218
H -3.097735 1.898163 -6.814264
H -6.287007 -1.911568 4.036967
H -2.085658 1.916829 -4.707686
H -4.391347 -1.885435 2.675087
H -4.518398 1.685371 -8.522037
H -8.210099 -1.668910 5.070899
H -4.489522 0.666207 -9.755534
H -8.699534 -0.763609 6.296303
H -3.126610 1.078726 -9.026162
H -7.187915 -1.282523 6.239969
C 7.890742 0.921558 -5.926903
H -0.868566 2.211752 0.607256
H 0.718129 2.301349 0.528742
H 0.601185 2.542140 -1.809843
H -0.254967 3.684499 -1.084891
H -0.992729 2.428277 -1.744961
Ru 0.033064 -0.147817 0.017889
O 4.117324 0.130866 8.164482
C -3.009666 0.135906 0.393063
C -4.237297 0.155879 -0.365063
C -3.907397 0.120973 -1.675213
C -2.467533 0.067215 -1.751260
C -1.717498 -0.019769 -2.929423
C -0.326000 -0.098726 -3.008756
C 1.727031 -0.286692 -3.894782
C 1.823330 -0.091819 -2.473411
C 3.021220 -0.008196 -1.739043
C 3.104814 0.048549 -0.346555
C 2.557483 0.061055 1.806937
C 1.817122 0.043509 2.989528
C 0.418404 0.046309 3.074246
C -0.340870 0.059189 4.298274
C -1.643577 0.086814 3.962000
C -1.724573 0.098761 2.526256
C -2.912212 0.133479 1.785869
O 7.722255 -0.045901 -4.886970
C 0.416094 -0.287252 -4.221411
H 5.202456 0.192091 0.066155
H 4.593188 0.158492 2.464190
C 2.543479 0.020550 4.301829
C 3.098172 1.174482 4.848916
H 5.177912 -1.624111 -1.717916
C 3.109289 -1.161754 6.349608
H 7.088010 -1.599845 -3.039745
C 2.582027 -1.140102 5.060414
C -2.453384 -0.027982 -4.237538
H 3.827994 1.692837 -3.610421
C -4.187343 0.131799 2.574475
C -3.054855 -1.186767 -4.721756
C -4.786504 1.323250 2.976135
C -3.653873 -1.209353 -5.973613
C -5.918414 1.317277 3.771279
C -3.653006 -0.067740 -6.765217
C -6.477439 0.111453 4.180915
C -3.080266 1.108218 -6.286325
C -5.906575 -1.084104 3.770049
C -2.481537 1.116618 -5.029803
C -4.772644 -1.063758 2.964148
H 3.998358 1.974694 6.485942
C -4.079494 0.892999 -8.895066
C -7.945890 -0.969121 5.705048
C -0.084603 1.965361 0.056000
C -0.192885 2.723200 -1.263929
H 4.314542 -0.795341 9.909683
N -1.955719 0.091108 -0.478200
H 4.379512 -1.777172 8.648465
N 0.557150 -0.016222 -1.955645
N 2.037584 0.016257 0.532799
N -0.451318 0.075801 2.012389
N -0.332930 -1.933967 -0.086002
H 5.727986 1.707770 -4.963161
O -7.570368 0.203850 4.988789
O -1.024492 -2.824335 -0.247485
H 7.137098 0.864067 -6.550966
H 8.726681 0.744604 -6.406053
H 7.921061 1.819766 -5.536133
C 4.322483 0.136653 0.419957
C 3.990129 0.127506 1.730201
O -4.230078 -0.201015 -7.995703
H -5.117559 0.188357 -0.007716
H -4.511179 0.130493 -2.408647
H 0.012130 0.050229 5.180487
H -2.377298 0.096894 4.564130
C 4.284368 0.020550 -2.538230
C 5.283740 -0.947842 -2.378196
C 6.419259 -0.936082 -3.163327
C 6.587747 0.047802 -4.140137
C 5.616672 1.031127 -4.305667
C 4.483318 1.013021 -3.501744
C 3.627744 1.175602 6.127642
C 3.619948 0.011404 6.892160