106
H41 Rh1 C55 N4 O5
C 4.463018 1.985379 -4.971267
C 6.133363 2.974806 -6.990579
N -1.572496 -1.557085 0.017377
H 3.392284 -0.023275 -0.740103
N -0.030639 -0.412688 -2.116213
H 3.505353 0.719788 3.775821
O -5.543635 -3.636271 6.377143
Rh -0.383896 0.064740 -0.170403
O 1.269661 -2.175973 0.078744
C -2.367409 -3.620377 -4.215582
H 1.132607 3.383093 -4.550491
H 2.540836 4.123176 -6.199565
C -2.639804 -4.690269 -4.989448
C -2.213223 -5.904203 -4.669953
C -1.668434 -0.072945 2.612899
C -1.724969 0.662171 3.849737
C -0.986590 1.776765 3.680717
C -1.947681 -8.126439 -5.420803
C -0.417816 1.756897 2.384231
C 0.399368 2.734403 1.852207
C 0.903041 2.740363 0.549384
C 1.828155 3.725816 0.005191
C 2.109116 3.361238 -1.252084
C 1.387870 2.186046 -1.526367
O 4.855335 3.507268 -6.765779
C 1.447831 1.459871 -2.730725
C 0.757421 0.288652 -3.001606
O -2.497610 -6.922438 -5.533420
H -3.028694 -4.249199 -0.823299
H -3.604321 -3.561766 1.414346
C 0.784832 3.857938 2.747521
C 0.438771 5.155319 2.508291
C 0.796824 6.181501 3.404805
C 1.471815 5.885468 4.539448
C 1.881264 4.597028 4.762440
C 1.530063 3.598661 3.900472
H -1.786643 -3.102815 4.086226
H -3.025268 -4.180654 5.729934
C 1.490660 8.058034 5.365597
C 2.350674 2.000280 -3.804088
H -6.079858 -1.798481 4.871327
H -4.860078 -0.871639 3.146555
H -5.631007 -4.848219 7.909626
H -4.558559 -5.260480 6.843569
H -4.279312 -4.058466 7.809109
C 3.603004 1.515501 -3.997509
C 3.375152 0.156530 0.172045
H 1.197707 -0.122615 -5.012999
C 4.397917 1.093306 2.093093
H -0.092313 -2.183920 -4.771360
C 3.457384 0.620448 2.852268
H 5.112311 1.236356 0.244565
C 2.378084 -0.038176 2.266895
H 5.081474 1.590006 2.481485
H -1.173326 -6.957207 -3.298648
N -0.851250 0.607534 1.713402
H -0.626824 -5.120411 -1.971634
N 0.647778 1.790673 -0.419422
C 1.975488 3.000634 -4.637444
C 2.838928 3.459585 -5.619273
C 4.080980 2.988713 -5.768211
O 1.860706 6.807343 5.502722
H 5.304187 1.604907 -5.073194
H 1.667117 -0.308381 2.802189
H 6.544525 3.429783 -7.730855
H 6.673013 3.091034 -6.204971
C -1.786643 -2.539558 -0.913948
H 6.059697 2.039023 -7.193424
C -2.706618 -3.496202 -0.383126
C -3.018415 -3.120697 0.842870
C -2.307448 -1.923650 1.143896
C -2.345138 -1.261052 2.347755
H -2.699765 -2.785921 -4.454145
H -3.140051 -4.574041 -5.765219
H -2.256053 -8.687710 -6.134013
H -0.991730 -8.047961 -5.464872
H -2.197805 -8.513865 -4.578285
C 0.765987 -0.403748 -4.239511
C 0.043028 -1.540197 -4.113140
C -0.477778 -1.565032 -2.772503
C -1.257272 -2.550485 -2.215203
C -3.170888 -1.860072 3.443560
C -2.670641 -2.844531 4.221865
H -2.185813 0.413821 4.619590
C -3.402167 -3.498189 5.221201
H -0.870095 2.448304 4.313627
C -4.704179 -3.090895 5.421391
H 2.162224 4.470866 0.451333
C -5.218132 -2.101468 4.698174
H 2.677890 3.806282 -1.838966
C -4.462622 -1.519336 3.682899
C -4.956016 -4.522384 7.308274
H -0.039205 5.366913 1.739624
H 0.568972 7.062647 3.215363
H 2.403782 4.401328 5.507298
H 1.793892 2.725462 4.082479
H 1.835008 8.574602 6.099249
H 1.833295 8.404730 4.540888
C -1.584488 -3.745545 -3.047492
H 0.531282 8.108697 5.361981
C 4.421902 0.894626 0.761852
H 3.899383 0.830055 -3.442326
C -1.462853 -6.104870 -3.532908
C -1.145916 -4.998223 -2.732165
C 1.189141 -0.993827 0.333006
C 2.338681 -0.294474 0.936687