95
H39 Rh1 C50 N4 O1
H -4.953373 1.235155 0.439539
C -4.663792 -5.465591 0.567160
H -4.970063 -1.187646 0.420939
C -3.804507 -4.477321 0.092796
H -1.083949 -4.884255 0.762486
C -6.102517 -6.494896 2.343863
C 3.309001 -3.524956 -1.087363
H 0.120551 -0.279737 3.539093
H 1.269417 -4.899644 0.101200
H 4.590834 -1.237231 -1.930779
C 3.103151 -4.460223 -2.073655
H 4.585271 1.171892 -1.964791
C 4.048392 -5.438234 -2.324691
H 1.294453 4.885599 -0.005989
C 5.196979 -5.522015 -1.638314
C 5.406445 -4.626074 -0.621373
H -1.028314 4.894148 0.747008
H -3.654293 -2.695699 2.755363
C 4.458144 -3.618996 -0.345537
H -5.075770 -4.349085 3.521433
C 6.268234 -6.578677 -1.944801
C 3.287859 3.481845 -1.229721
H -4.911647 -6.164903 0.005281
H -3.498514 -4.516646 -0.783995
C 3.093971 4.309393 -2.289299
C 4.028919 5.287404 -2.610608
H -6.335906 -6.325625 3.259447
H -5.676630 -7.353221 2.273741
C 5.152471 5.458385 -1.892534
C 5.347472 4.654775 -0.809466
H -6.897821 -6.486347 1.804843
C 4.412802 3.647696 -0.468378
H 2.320921 -4.434575 -2.575060
H 3.881486 -6.062315 -2.993432
C 6.202028 6.497950 -2.297499
C -3.368606 3.483555 0.908136
H 6.181999 -4.682498 -0.109925
C -3.780306 4.475244 0.087185
H 4.613088 -3.015433 0.342852
C -4.649883 5.470354 0.531008
H 5.976149 -7.130946 -2.673577
C -5.127511 5.460095 1.819266
H 6.412885 -7.124107 -1.167757
C -4.721653 4.459856 2.639468
H 7.088852 -6.140966 -2.184529
C -3.855692 3.457908 2.192807
H 2.326484 4.220483 -2.807252
C -6.081097 6.542405 2.305354
H 3.873141 5.841383 -3.342440
C 0.468271 0.060515 1.683716
H 6.106892 4.769332 -0.286994
C -0.327312 -0.406263 2.698305
H 4.563017 3.100557 0.269174
N -2.036145 0.005801 0.185903
H 5.898260 6.974987 -3.072272
N -0.066383 -2.022034 -0.189877
H 7.030435 6.055109 -2.497953
N 1.864156 -0.017452 -0.840209
H 6.334996 7.115191 -1.574399
N -0.056647 2.015170 -0.230679
H -3.476260 4.494052 -0.790981
O 1.469703 0.643560 2.003074
H -4.908865 6.145729 -0.053204
H -5.025699 4.441048 3.517634
H -3.607003 2.770564 2.768330
H -6.308088 6.379973 3.224889
H -6.878349 6.530436 1.770918
H -5.657157 7.400729 2.227896
H -0.499780 -1.339819 2.565705
H -1.156275 0.075903 2.702260
Rh -0.052697 -0.007313 -0.198444
C -2.844801 1.113758 0.334067
C -4.205915 0.682886 0.397797
C -4.215651 -0.645636 0.388338
C -2.851478 -1.097026 0.317290
C -2.415298 -2.406741 0.442597
C -1.096467 -2.831116 0.251886
C -0.600202 -4.157586 0.444152
C 0.696097 -4.166135 0.079734
C 1.029629 -2.850949 -0.342426
C 2.278082 -2.444528 -0.827112
C 2.641657 -1.131222 -1.096398
C 3.896508 -0.688382 -1.643286
C 3.894004 0.629882 -1.663558
C 2.632199 1.082810 -1.136936
C 2.266398 2.402955 -0.907875
C 1.044373 2.820490 -0.407844
C 0.720854 4.153800 0.005809
C -0.561814 4.162349 0.415811
C -1.074491 2.832117 0.246974
C -2.386368 2.437151 0.458944
C -3.404769 -3.448015 0.904390
C -3.897140 -3.395011 2.191912
C -4.759763 -4.391830 2.647458
C -5.153938 -5.419426 1.859347