12
H4 C6 Cl2
H 1.872550 1.398892 1.231730
C -0.687410 -0.155116 -0.021327
C 0.642843 0.092817 0.298769
Cl 1.915891 -0.789706 -0.406483
C 0.983293 1.233603 1.016889
H 0.221982 2.889441 1.894330
C -0.005300 2.126457 1.414694
Cl -1.142053 -1.421345 -1.141472
C -1.335016 1.877048 1.093181
H -1.996991 2.474743 1.359857
C -1.675465 0.736262 0.376943
H -2.565934 0.570973 0.162321