20
H14 C6
H -3.196653 -0.514651 0.684387
H -2.956726 -0.752345 2.248848
H -2.947840 -1.993248 1.240207
H -0.877366 -0.546111 2.006095
H -0.868480 -1.783518 1.012944
H -1.094189 0.813639 0.301962
H -1.074639 -0.420273 -0.686715
H 1.065147 0.509530 0.757722
H 1.098914 -0.759336 -0.185158
H 1.043820 1.830829 -0.879869
H 0.807448 0.659837 -1.909548
C -2.711469 -1.049463 1.347135
H 2.933016 1.907730 -1.535447
C -1.241699 -0.874688 1.146220
H 2.769511 0.537494 -2.349779
C -0.701421 -0.082957 0.164719
H 3.213819 0.506035 -0.811306
C 0.706146 0.142503 -0.089958
C 1.297964 0.897531 -1.084132
C 2.657545 0.967441 -1.475117