127
H57 Ir1 C63 N4 O2
H 2.902298 -3.440565 -3.136836
H -0.988437 -4.392809 2.895920
H 2.981659 -1.287194 -4.257512
H 0.661870 3.440213 -3.473528
H 0.549950 -5.299064 1.242812
H -0.945704 4.335648 -1.870592
H -3.853580 -3.268782 2.664639
H -4.958532 -4.114169 4.466650
H -2.512579 -2.257022 6.917880
H -1.344545 -1.523902 5.125709
H -4.240212 -3.486554 7.941404
H 5.004352 -8.503421 -1.520333
H -5.562898 -3.546069 7.103330
H 4.996213 2.928923 -4.852414
H -4.608529 -4.789127 7.152261
H 5.342146 3.622817 -6.885948
H 0.429891 -5.941559 -1.532022
H 1.490075 -7.902858 -1.877890
H 4.843595 -6.305414 -0.737417
H 3.822074 -4.296773 -0.491315
H 0.914197 1.004145 -5.642008
H 3.962482 -8.876744 -2.630194
H 2.076127 1.979384 -7.364846
H 3.718294 -9.316346 -1.145950
H 3.844458 1.861706 -3.154088
H 4.035738 4.054303 -7.637846
H 4.754059 2.713856 -8.020081
H -0.786981 4.886164 1.005188
H -1.847166 6.908331 1.359333
H -5.208825 5.405570 0.042309
H -4.246316 3.336062 -0.208125
H -3.489332 8.415150 0.992134
H -4.875101 7.778066 1.352634
H -4.512888 8.068879 -0.143639
H 0.918267 0.763378 3.277613
H 1.233677 2.765256 4.382099
H 2.456654 4.487141 1.001675
H 2.204326 2.454153 -0.082626
H 3.069160 4.370816 5.374044
H 1.510424 4.499315 5.460131
H 2.409851 5.776188 5.597144
H 1.050536 6.157627 2.187149
H 1.101409 6.892100 3.570968
H 0.216226 5.608463 3.396328
H 4.300276 5.047126 3.380653
H 3.783411 6.522834 3.498547
H 3.622653 5.742373 2.150187
H -1.157334 -2.596530 -3.195716
H -2.520719 -3.184919 -2.539032
H -2.541068 -0.205098 -3.040416
H -3.031479 -1.080243 -4.303092
H -3.898348 -2.703387 -2.465482
H -4.834403 -1.418398 -2.643785
H -3.546310 -0.145582 -1.067263
H -3.407936 -1.571244 -0.387542
Ir -0.115260 -0.463313 -0.257545
C -1.955016 1.530314 1.137861
C -2.817814 1.658813 2.275380
C -2.844268 0.475270 2.892415
C -1.979434 -0.371470 2.197354
C -1.747455 -1.697037 2.496791
C -0.911110 -2.593824 1.814909
C -0.638433 -3.936976 2.165282
C 0.495007 -3.379697 0.329401
C 1.304899 -3.539306 -0.794877
C 0.210121 -4.433388 1.264033
C 1.591820 -2.547835 -1.733997
C 2.454619 -2.669571 -2.871517
C 2.505492 -1.480618 -3.484476
C 1.699670 -0.563542 -2.747838
C 1.461586 0.771494 -3.054502
C 0.600822 1.620939 -2.370487
C 0.303727 2.984380 -2.745628
C -0.579421 3.480792 -1.861188
C -0.852098 2.455506 -0.905896
C -1.718967 2.529900 0.195078
C -2.492230 -2.285427 3.702981
C -3.560554 -3.064536 3.524673
C -4.225967 -3.560948 4.615818
C -3.882069 -3.293129 5.899562
C -2.789326 -2.491025 6.061253
C -2.109668 -2.033840 4.984212
C -4.647192 -3.830119 7.144429
C 1.998801 -4.859463 -1.001168
C 1.349667 -5.982138 -1.398509
C 1.982521 -7.161622 -1.608781
C 3.301139 -7.282005 -1.438359
C 3.944168 -6.225609 -0.957199
C 2.245024 1.361236 -4.186644
C 3.319453 -5.025835 -0.777296
C 1.742403 1.390994 -5.472050
C 4.072367 -8.625157 -1.709683
C 2.436305 1.972621 -6.508089
C 3.697945 2.567773 -6.265788
C 4.176147 2.531253 -5.036188
C 3.461896 1.903637 -4.000786
C 4.534290 3.311714 -7.297365
C -2.390485 3.877110 0.387171
C -1.694548 4.968674 0.815775
C -2.317228 6.206321 0.972566
C -3.554449 6.394335 0.585359
C -4.301259 5.300066 0.211029
C -3.733521 4.055655 0.082314
C -4.164920 7.794297 0.709011
C 1.492110 0.030258 0.832412
C 1.569436 1.382878 1.485390
C 1.260131 1.495146 2.817371
C 1.453447 2.709799 3.479363
C 1.956068 3.827063 2.856966
C 2.188047 3.736437 1.480351
C 2.015080 2.510963 0.827274
C 2.245024 5.147220 3.568717
C 2.316246 4.926743 5.160094
C 1.036292 6.037244 3.139362
C 3.616548 5.662568 3.105138
C -1.995714 -2.396342 -2.763856
C -2.850373 -1.070774 -3.341034
C -3.928871 -1.733558 -2.472646
C -3.251249 -1.057248 -1.196657
N -1.438150 0.279140 1.117219
N -0.209069 -2.292190 0.661594
N 1.109548 -1.253378 -1.677924
N -0.129708 1.290900 -1.230894
O 2.456654 -0.729914 0.914769
O -1.983504 -1.126232 -1.590651
H -3.275668 2.425748 2.534173
H -3.346889 0.254793 3.643103