74
P1 H32 Ru1 C33 N1 Cl2 O4
P -0.210625 -0.578102 1.389569
H 1.070634 3.268714 -1.250270
C 0.959471 0.406844 0.355420
H -4.456364 -5.132571 -1.906711
Ru -2.005676 -1.639422 0.279815
C 0.276934 1.338094 3.367752
H -1.203750 -4.194109 1.432627
C 3.567343 2.714933 -2.082237
C -4.947702 -4.321534 -2.156745
C 2.629131 1.962400 -1.228265
N 3.874151 4.596667 -3.372751
H -1.964101 -4.283066 -0.784362
C 1.361879 2.427223 -0.919510
Cl -2.679543 0.576745 -0.398942
C -1.941869 -3.660363 1.164126
H -2.711113 0.376390 2.473737
O 3.002637 3.898631 -2.540079
Cl -0.537665 -1.717721 -1.626150
H 1.235154 -2.881383 0.542041
O 4.681190 2.390358 -2.391146
C -2.419868 -3.727682 -0.160860
O 3.560673 3.263104 -5.216116
C -2.044138 0.830795 2.972633
H -4.111760 -1.454855 2.276449
C -0.107688 2.164358 4.418892
O 4.676744 6.024798 -1.757947
C 1.417461 -2.834900 1.472725
H 2.595783 -4.490634 1.537374
C -3.678227 -2.042296 1.670144
H -3.224684 -3.246029 -2.614410
H 5.254789 7.103509 -4.265010
C 2.217830 -3.798207 2.063660
H 3.943072 0.430886 -0.959868
H -1.677302 2.868806 5.499403
H 6.395316 6.007968 -3.973884
C -2.571049 -2.789219 2.103190
C -0.699073 0.632844 2.667639
H -2.695550 -3.262859 4.098872
H 0.559286 2.626777 4.914423
C 2.466834 -3.750122 3.437539
C -4.022830 -3.104177 -2.026643
H -1.192634 -3.020830 3.610181
C 5.423756 6.141004 -4.108936
C 3.069335 0.737029 -0.748841
H -2.166417 -1.773820 3.844742
H -0.352246 1.966407 0.096074
C -2.117506 -2.704269 3.540665
H -5.045525 -1.959750 -3.430129
C 0.517045 1.653052 -0.122958
H -4.160672 -1.070173 -2.436348
H 3.024870 -4.403279 3.842983
C -4.760949 -1.842742 -2.498782
H -5.545756 -1.692877 -1.934124
C 4.654511 5.655343 -2.910399
H -4.914353 -1.635175 0.079344
C -4.158448 -2.149686 0.341156
H 0.768272 -1.062961 4.139500
H 5.686099 4.901207 -5.772329
C -2.417644 1.694726 4.010126
C 0.877211 -1.792253 2.236973
H 4.414401 5.874131 -5.920926
C -3.553725 -2.992780 -0.596494
C -1.437191 2.326245 4.756951
C 2.231170 -0.041952 0.041206
C 1.128438 -1.763402 3.609806
C 4.925748 5.308328 -5.289867
H 2.531308 -0.883443 0.364415
C 4.038671 4.236830 -4.703994
H -3.338070 1.846194 4.201057
H 2.042194 -2.741936 5.143672
H 1.192912 1.256349 3.130108
H -5.719169 -4.209336 -1.564707
H -5.254510 -4.400074 -3.084359
C 1.902129 -2.753155 4.204884