104
H43 Rh1 C56 N4
C -5.566577 -1.937476 1.252941
C 0.772945 -0.758705 0.735865
C 1.930968 -0.435516 1.162708
C 2.870094 -1.178449 1.981771
C 2.653455 -2.463162 2.405664
C 4.058365 -0.577665 2.356815
N -1.587360 -1.461408 -0.536157
N 0.494041 -0.219609 -2.048482
C 1.462782 0.552828 -2.663861
C 2.127578 1.635043 -2.091188
C 1.728397 2.262648 -0.892294
C 2.410664 3.311338 -0.234864
C 1.687496 3.673418 0.843207
C 0.523360 2.833929 0.859387
C -0.504784 2.895617 1.802611
C -1.508712 1.966279 1.936135
C -2.628461 2.093678 2.844190
C -3.361565 0.973913 2.719945
H -7.440687 -2.555693 1.327572
H -7.903927 -3.104177 4.836505
H -8.768152 -2.424272 3.718626
H -8.293278 -3.908798 3.547386
C 3.388843 2.104406 -2.745891
C 3.579975 3.425326 -3.105664
C 4.438719 1.227369 -2.956672
C -0.471797 4.050249 2.768682
C -0.639659 5.337643 2.326267
C -0.541242 6.394379 3.202616
H 3.430485 -4.008035 3.395095
H 5.414605 -3.015668 3.954811
H 5.799510 -0.874034 3.304686
N 0.567896 1.939459 -0.194050
N -1.625718 0.788850 1.238536
C -6.773810 -2.553011 3.197190
C -6.694231 -2.373312 1.851998
C -8.055002 -3.043830 3.890427
H -0.145996 4.779772 5.910223
H -0.246809 2.970715 4.474658
H -0.244956 8.226234 4.980318
H -0.878464 7.384063 6.140661
H 0.675088 7.386746 5.933038
C 3.598231 -3.132338 3.128690
C 4.775574 -2.548988 3.466628
C 4.995513 -1.284391 3.079204
H 4.889990 4.748928 -3.909448
C -0.299780 6.213339 4.549773
H 6.340317 1.065103 -3.626446
C -0.238389 4.931309 4.997246
C -0.308218 3.835683 4.138847
H 7.122571 4.415010 -4.501394
H 7.850803 3.305974 -3.664925
C -0.175533 7.413566 5.488947
H 7.398158 3.006923 -5.135769
H -3.513094 -3.777377 0.471035
H -2.066096 -4.493490 -1.346353
H 0.990263 -1.765823 -4.782955
H 2.346593 0.302054 -4.585259
H 1.726449 -3.837723 -3.050526
H 2.033294 -5.779543 -4.274121
H -1.829834 -5.902918 -5.054018
H -2.160756 -3.947688 -3.887553
H -0.501588 -7.656993 -5.898796
H 0.943259 -7.188971 -6.286573
H 0.713214 -8.019073 -4.976382
H 4.336797 0.328875 -2.739285
H -3.712764 -1.706818 3.882258
H -5.705821 -2.396110 4.871734
H -5.553546 -1.814100 0.329832
H 0.489235 -1.608922 0.984477
H 2.219301 0.410678 0.908627
H 1.851879 -2.884247 2.198910
C 4.793077 3.861163 -3.653220
H 4.225534 0.306077 2.120503
C 5.848843 2.985466 -3.818660
Rh -0.512395 0.244792 -0.361034
C 5.651575 1.675274 -3.490240
C -2.591537 -1.906632 0.313196
C -2.883722 -3.251691 0.033391
C 7.174285 3.472262 -4.326022
C -2.097235 -3.641932 -0.974007
C -1.304000 -2.508757 -1.377639
C -0.464377 -2.448410 -2.476472
C 0.288843 -1.329987 -2.827699
C 1.015893 -1.187837 -4.054097
C 1.760008 -0.034546 -3.948261
H 3.218812 3.686828 -0.501078
H 1.901506 4.338571 1.457525
C -2.744317 0.131742 1.718055
H -2.808275 2.813814 3.405874
C -3.175327 -1.119444 1.323416
H -4.133505 0.772757 3.198382
C -0.266570 -3.692891 -3.319983
C 0.995819 -4.249421 -3.451548
C 1.178829 -5.422827 -4.184768
C 0.131290 -6.049091 -4.766520
C -1.103827 -5.487197 -4.648932
C -1.306651 -4.313791 -3.940423
C 0.340869 -7.351237 -5.556493
H 2.889692 4.036838 -2.981686
H -0.823333 5.498567 1.428854
H -0.641040 7.259347 2.875924
C -4.408229 -1.670610 2.003121
C -4.464335 -1.861037 3.357552
C -5.665328 -2.290168 3.948770