156
Cu2 H16 C88 N8 O2 F40
F -9.194479 0.236959 4.927514
Cu -2.869851 -1.499747 -1.122796
C -6.372499 -0.868046 2.130922
C 3.650394 -0.319891 4.896539
C -6.135463 0.152657 3.052796
Cu 2.635879 1.106446 0.390687
F -9.708830 -1.764941 3.221998
C 4.719731 0.296311 5.537084
H 0.892575 -4.323313 -3.072587
F -7.878125 -2.483213 1.374632
C -7.066142 0.538255 3.986410
C 5.224458 -0.238613 6.716481
C -8.271641 -0.104409 4.043380
C 4.659848 -1.389738 7.255334
H 0.774948 -5.011342 -0.739001
F -1.914434 2.271182 -0.783692
H -2.347516 -3.514312 3.452215
C -8.534341 -1.161025 3.173293
F -2.883610 2.286114 1.733278
C 3.590511 -2.004050 6.614789
H -4.479060 -2.274347 3.575554
C -7.575859 -1.499369 2.238332
F -1.895543 0.588156 3.580563
C 3.085784 -1.469126 5.435392
H -7.679941 -0.251844 -0.324329
C -0.497207 0.443746 -0.324074
F -0.038105 -1.241926 2.880765
H -7.284287 0.184790 -2.747950
C -1.437154 1.360488 0.088182
F 0.774591 -1.423195 0.353264
F 7.984772 -2.465635 -3.856394
H -2.618414 0.942756 -5.446078
C -1.949722 1.407743 1.383915
F 3.952660 -4.207256 -0.747538
H -0.354985 1.248967 -4.507900
C -1.450342 0.545816 2.312525
C 4.745751 -1.752655 2.553355
F 5.569853 -5.990461 -1.924795
C -0.494712 -0.376597 1.973029
H 1.131393 -0.662015 -4.153890
C 3.819349 -0.620431 2.453089
F 7.581632 -5.107553 -3.563834
C -0.053432 -0.457875 0.659184
H 3.327098 -1.718631 -3.696447
C 3.261512 0.075159 3.487903
C 2.440974 1.228175 3.349937
C 5.120732 -2.393429 -1.663418
H 5.651123 -2.830063 1.069808
F 6.381480 -0.689990 -2.640299
C 1.791887 1.954008 4.386593
C 4.936093 -3.752476 -1.508379
F 2.273088 6.034550 2.817647
C 1.180583 3.001173 3.815606
C 5.767681 -4.648426 -2.116416
C 6.794600 -4.228804 -2.932993
H 0.874752 5.656890 -0.816893
C 6.989576 -2.894330 -3.082857
F -2.935651 6.634307 1.529012
C 6.160840 -2.011611 -2.459976
H 2.172214 4.902704 -2.816602
F -1.647813 4.393487 0.855986
C -0.770600 -2.998290 -2.649205
C 0.360401 5.110625 1.856121
F 6.298428 3.664630 -2.892081
C 0.281270 -3.998201 -2.423230
C 1.009489 6.159680 2.466644
F 7.011319 4.635998 -5.283447
C 0.223883 -4.361117 -1.160284
C 0.337232 7.356171 2.736660
F 5.304301 4.448869 -7.377201
C -0.846880 -3.582359 -0.521598
C -0.958804 7.497935 2.444878
F 2.861936 3.346889 -7.037727
C -1.217940 -3.691990 0.810568
F 2.707239 -5.083170 3.396465
C -1.634268 6.486683 1.850371
F 2.095222 2.455286 -4.608652
C -2.353932 -3.036094 1.352663
F 1.469660 -7.328715 4.210031
C -0.974131 5.314766 1.529228
C -2.790221 -3.081458 2.730972
C 4.184349 3.020075 -3.683892
C -3.944748 -2.393429 2.799645
C 5.433335 3.573901 -3.907886
C -4.228479 -1.873627 1.489529
C 5.813662 4.067240 -5.119551
C -5.334886 -1.213951 1.103071
C 4.941796 3.993523 -6.176047
C -5.635726 -0.820791 -0.249356
C 3.693167 3.435917 -6.007448
C -6.859404 -0.361475 -0.791750
C 3.320682 2.986051 -4.761043
C -6.638051 -0.106299 -2.113991
C -5.227596 0.455087 -4.761101
C -5.655331 1.766879 -4.919264
C -5.264310 -0.357695 -2.364257
C -4.517913 -0.025021 -3.518147
C -6.393173 2.127905 -6.040671
C -3.155934 0.114853 -3.542164
C -6.703281 1.177140 -7.004188
C -2.335753 0.706482 -4.569422
C -6.271981 -0.136542 -6.848455
F 1.056896 8.396342 3.250773
C -1.101738 0.867148 -4.065329
C -5.534139 -0.497569 -5.725954
F -1.593990 8.646414 2.701157
C -1.129185 0.345456 -2.718291
C -0.068759 0.343566 -1.743137
C 1.213019 0.050586 -2.103896
C 1.618298 -0.624211 -3.338589
C 2.817737 -1.185598 -3.095871
C 3.186658 -0.813230 -1.735093
H 5.070117 -2.142034 3.355667
N -1.420044 -2.759370 -1.420983
C 4.226766 -1.425652 -0.980996
H 1.790817 1.736636 5.312657
N -3.190866 -2.267732 0.638591
C 4.295560 -1.285778 0.409798
H 0.668014 3.666520 4.261226
N -4.673679 -0.826462 -1.217919
C 5.052651 -2.134473 1.315247
N -2.356427 -0.111781 -2.437947
N 2.279504 0.017319 -1.213783
N 3.608690 -0.367146 1.130202
N 2.193957 1.806573 2.159956
N 2.303386 2.832001 -0.402622
O -1.091045 -2.472439 -3.708677
C 1.440431 2.931236 2.412813
O 4.514062 1.726429 -1.750603
F 5.276855 1.373719 5.058760
F -5.452157 2.655268 -4.040337
C 1.096818 3.878221 1.434899
F 6.231060 0.303872 7.338605
F -6.821977 3.352748 -6.227063
C 1.524909 3.823406 0.090645
F 5.132138 -1.937894 8.367351
F -7.419736 1.492801 -8.084396
C 1.375202 4.853559 -0.901846
F 3.063685 -3.132494 7.124818
F -6.460898 -1.006030 -7.836634
C 2.094509 4.443388 -1.989086
F 1.976169 -2.045634 4.840657
F -5.074324 -1.737533 -5.594585
C 2.701536 3.205313 -1.660345
F 1.528830 -3.396364 1.724568
C 3.802953 2.551308 -2.293463
C -0.476533 -4.652206 1.701226
C 0.823424 -4.446176 2.128228
C 1.470016 -5.342126 2.980228
F -1.102451 -7.790678 3.446006
F -2.335040 -6.073818 1.789557
C 0.836613 -6.451667 3.392655
C -0.451938 -6.689831 3.019289
F -4.960975 0.800236 3.021864
C -1.087124 -5.807112 2.169246
F -6.815917 1.526069 4.829866