88
Tb3 C84 N1
C 2.441670 3.259805 1.370500
C 2.200060 2.530142 2.566845
C 0.895247 2.703619 3.198435
C -0.165866 3.475657 2.635528
C -1.549933 3.063815 2.791097
C -2.505251 3.186971 1.788859
C -2.157535 3.761696 0.496137
C -2.720703 3.206834 -0.652530
C -1.989926 3.119434 -1.900924
C -0.682923 3.691510 -2.030472
C 0.194683 3.148567 -2.903415
C 1.599059 3.022764 -2.731212
C 2.135725 3.522006 -1.516768
C 3.297289 2.824126 -0.932700
C 3.367349 2.650649 0.456285
N 0.021058 -0.098497 0.006363
Tb -0.183037 -2.267621 -0.119020
Tb 1.758881 0.986859 -0.576610
Tb -1.728721 0.917734 0.637177
C 3.132259 -2.652978 -0.122078
C -0.746316 0.945013 4.057983
C 0.573244 1.441607 3.864412
C 1.667568 -2.908558 1.873827
C 2.160504 -3.426341 0.582783
C 2.014097 -3.058199 -2.278107
C -0.847448 -2.961529 -2.654718
C -2.693496 -2.871479 -0.950980
C -2.534180 -2.856913 1.952821
C 0.309610 -3.348210 2.324855
C -0.454015 -4.207649 1.478594
C -0.946331 -0.430884 4.045591
C 0.060087 -4.726756 0.270396
C 0.143682 -1.360509 3.750045
C 1.339854 -4.277834 -0.219688
C 1.171489 -3.973257 -1.611079
C -0.237818 -4.024902 -1.931671
C -0.878648 -4.561224 -0.767325
C -2.060427 -3.940150 -0.238143
C -1.843165 -3.840831 1.178577
C 3.934095 1.310506 0.755366
C 4.236743 0.760942 -0.512068
C 3.690562 -1.465124 0.423574
C 3.833073 1.601842 -1.629012
C 3.211291 1.027117 -2.789695
C 4.118120 -0.637467 -0.656229
C 3.655750 -1.236029 -1.865505
C 2.142206 1.830937 -3.322130
C 1.006392 1.229727 -3.943800
C -0.205779 1.942174 -3.666821
C -1.431458 1.215160 -3.412874
C -2.303775 1.952768 -2.559603
C -3.256111 1.293291 -1.739688
C -3.571345 2.089166 -0.560295
C -3.989924 1.487956 0.658588
C -3.424865 2.090491 1.837262
C -2.935242 1.252239 2.937193
C -1.751754 1.805776 3.529144
C 1.654339 0.519928 3.530090
C 2.640034 1.187351 2.766324
C 3.473064 0.480201 1.838679
C 3.238330 -0.942045 1.667998
C 3.113375 -2.520553 -1.550020
C 3.118060 -0.433533 -2.927557
C 2.018480 -0.991042 -3.643652
C 0.939851 -0.150143 -4.082022
C -0.288459 -0.890399 -3.856915
C -1.482624 -0.201789 -3.408427
C -2.364149 -0.934100 -2.525715
C -3.289670 -0.128955 -1.704063
C -3.844638 -0.726192 -0.538864
C -4.134218 0.063062 0.649935
C -3.808381 -0.751353 1.770818
C -3.131561 -0.193843 2.906578
C -2.144642 -1.006933 3.550124
C 1.414434 -0.865239 3.376573
C 2.198850 -1.650520 2.396144
C 1.473019 -2.267621 -3.309707
C 0.023320 -2.169626 -3.445261
C -2.107532 -2.325888 -2.144385
C -3.524357 -2.027931 -0.129217
C -3.485657 -2.065010 1.311491
C -1.837196 -2.321915 3.076779
C -0.410344 -2.509959 3.205952
C 1.311254 4.203996 -0.546003
C -0.093839 4.295369 -0.881126
C -0.828209 4.312584 0.366756
C 0.056246 4.162944 1.443092
C 1.453652 4.090110 0.876458