12
H6 C6
H -1.705968 -1.480835 0.517527
C -1.004634 -0.876976 0.306499
C -0.265545 -0.334033 1.305187
H -0.447888 -0.565777 2.208072
C 0.747551 0.550567 1.017059
H 1.264156 0.931951 1.717638
C 1.010067 0.884278 -0.313945
H 1.710587 1.492110 -0.520670
C 0.265904 0.340011 -1.316729
H 0.438043 0.571755 -2.221645
C -0.752625 -0.563129 -0.998765
H -1.267487 -0.957756 -1.692653