49
Fe2 H11 C25 S2 N1 O8
Fe 2.234428 0.492253 -2.725572
C -6.237739 0.425853 3.061230
Fe 3.082864 -0.884832 -0.818797
C -7.210949 0.307326 4.042876
H -1.358049 -2.256754 -1.989614
C -6.877602 0.052051 5.374038
H -3.345397 -1.996621 -0.770216
C -5.530268 -0.067590 5.700479
C -4.545992 0.018953 4.723116
C -7.939643 -0.118908 6.435535
S 1.163655 -1.316328 -1.932868
H -6.481800 0.612805 2.162268
O 5.684077 0.356316 -0.256169
H -8.125038 0.402269 3.804045
S 2.245403 1.191575 -0.588902
N -3.851406 0.365628 2.418514
H -5.279689 -0.211118 6.606151
O -0.091361 1.704856 -4.065931
H -3.631903 -0.091680 4.954446
O 4.405261 2.423511 -3.164271
H -8.168999 -1.068443 6.517590
O 3.219825 -1.076136 -5.003388
H -8.738979 0.390123 6.183563
O 4.484695 -3.067215 -2.198453
H -7.600536 0.210965 7.294054
C 0.818181 1.292490 -3.542444
O 2.490676 -2.167884 1.772159
C 3.541500 1.695949 -3.009931
C 2.817050 -0.473781 -4.119239
O -4.827798 -1.234341 1.112866
C 3.895312 -2.246531 -1.670625
O -3.003410 2.203056 3.471108
C 2.720032 -1.674239 0.775907
C 4.680852 -0.142188 -0.461994
C -0.291460 -0.838271 -1.019020
C -1.399433 -1.612394 -1.292304
C -2.587294 -1.463805 -0.558091
C -2.657329 -0.546254 0.469775
H -0.694084 2.756623 2.725844
C -3.869900 -0.517103 1.316846
H 1.252335 2.666538 1.419211
C -2.870768 1.348161 2.612390
C -1.660471 1.266173 1.765595
C -0.623139 2.120360 2.023696
C 0.545470 2.055074 1.250876
C 0.683266 1.112624 0.244949
C -0.353460 0.192037 -0.034635
C -1.559209 0.300848 0.731752
C -4.909051 0.269166 3.405092