180
H88 Ru1 C82 N8 Cl1
H -0.711709 10.202239 2.336916
H -2.103552 9.831585 1.640564
C 6.012492 -6.766427 3.379329
H -0.723924 9.414391 0.945629
C 6.472571 -4.381273 2.795594
C 4.902290 -4.984626 4.607812
N 1.870725 -0.526798 -0.004718
N -0.377208 -1.610173 1.376755
N -1.563668 1.065355 1.292647
N 0.747140 2.193773 0.006400
N 1.327574 -1.409720 -2.765909
H -1.605723 3.538768 -2.858070
N 0.320245 0.940695 -2.825109
N 2.249818 2.447747 -3.697981
N 4.251215 -0.060571 -3.317256
H 0.015976 4.796999 -3.925891
H 1.816317 5.970461 -4.832996
H 3.909206 4.916672 -4.984418
C -1.232519 3.460648 0.741118
C 0.070587 3.375879 0.225484
C 0.897526 4.411385 -0.263146
C 2.043039 3.846261 -0.774587
Cl 1.865169 -0.039296 -5.397195
H -3.003145 8.490247 3.562349
H 4.240027 -2.702524 -0.347737
H 0.029574 -4.608985 2.313425
H -2.181346 -3.726395 2.922940
H -4.632265 0.979090 2.295160
C -1.841392 4.833565 0.796754
C -3.002805 5.119451 0.088159
H 3.508715 1.778574 -1.744072
H 1.284704 -5.164135 -0.062521
C -3.620646 6.374358 0.198908
C -3.018035 7.325095 1.007860
H 4.259872 -7.289997 1.609152
H 3.841467 -3.374023 2.509562
C -1.821635 7.092398 1.688348
C -1.250938 5.825856 1.590069
H 2.045994 -9.716704 0.165574
C -4.949150 6.608718 -0.514927
H 1.922339 -8.882316 1.525105
C -5.470934 8.033162 -0.312483
H 3.355752 -9.095068 0.844230
C -4.806073 6.356075 -2.011840
H 0.633987 -6.841223 -1.201582
C -5.996655 5.621414 0.048232
H 0.195172 -7.333213 0.256884
C -7.437394 -4.835034 3.609460
C -1.206899 8.199375 2.555748
C -2.065666 8.363926 3.818476
H 0.425088 -8.401961 -0.911932
C 0.232361 7.868611 2.965949
H 3.964669 -7.890026 -1.203143
C -1.184344 9.530739 1.802587
H 2.902814 -6.944275 -1.939253
H -4.294731 -3.019990 1.662599
H 2.702597 -8.533269 -1.947957
H -6.556372 -2.935222 5.014212
H -3.692373 -0.151157 4.440170
H -5.767381 -4.215060 0.806205
H -4.926654 -5.760839 3.917370
H -4.348351 -5.428414 2.461498
H -5.541443 -6.482203 2.627499
H -6.362566 -2.222169 7.291667
H -6.968034 -0.812684 7.743463
H -4.685558 0.079879 7.899040
C 1.041427 3.056750 -3.592836
H -3.703732 0.023367 6.637308
C 0.865225 4.379804 -4.008695
H -4.084299 -1.321295 7.416853
C 1.926973 5.074574 -4.538127
H -6.874771 0.630043 5.148406
C 3.158249 4.451276 -4.633537
H -5.392119 1.215112 5.292905
C 3.277392 3.143181 -4.211040
H -6.393176 1.251679 6.540633
H 6.570741 -1.351213 -1.439910
H 6.839161 -0.147833 -5.289302
H 4.577297 0.442223 -5.207784
H -2.445024 -0.269168 -1.695898
H -3.096375 1.979691 -1.961416
H -1.628120 -2.426610 -1.863746
H -0.608570 -4.532527 -2.109770
H 1.612849 -4.635579 -2.857943
H 2.792053 -2.669281 -3.220884
H 4.123692 2.716014 -4.287075
H -0.165894 -0.845926 0.996175
H 0.459329 1.396284 0.237450
H 6.768973 -6.713239 4.000343
H 6.322608 -7.105501 2.514161
H 5.334576 -7.373104 3.741907
H 6.070307 -3.487048 2.796196
H 6.804227 -4.587377 1.896319
H 7.217064 -4.406205 3.432658
H 5.613098 -5.110947 5.269124
H 4.128240 -5.533128 4.849584
H 4.640698 -4.040537 4.585175
Ru 2.194424 0.442140 -3.102685
C 2.785433 0.081541 -0.865235
C 3.903029 -0.820995 -1.124013
C 3.673998 -1.941269 -0.408534
C 2.397169 -1.755111 0.249842
C 1.747262 -2.785630 0.978694
C 0.447867 -2.705848 1.445908
C -0.286984 -3.733043 2.127194
C -1.499785 -3.252688 2.461817
C -1.579760 -1.879770 1.988639
C -2.623986 -1.002167 2.180875
C -2.618546 0.384048 1.800682
C -3.772127 1.240044 1.986792
C -3.379317 2.483316 1.634013
C -2.001125 2.381926 1.186238
C 1.925767 2.445087 -0.619384
C 2.830125 1.472742 -1.154150
C 2.471081 -4.075441 1.185922
C 2.041092 -5.218986 0.508857
C 2.696163 -6.435663 0.658390
C 3.791538 -6.468906 1.507350
C 4.240829 -5.355280 2.217897
C 3.557623 -4.148575 2.040260
C 2.209270 -7.673949 -0.132947
C 2.400231 -8.957112 0.672720
C 0.733021 -7.550951 -0.533917
C 3.017567 -7.768690 -1.421162
C 5.421426 -5.413455 3.199642
C -3.803513 -1.524075 2.940583
C -4.506391 -2.636038 2.506475
C -5.514989 -3.201162 3.279898
C -5.857126 -2.569553 4.484334
C -5.204426 -1.419361 4.929365
H -3.905387 3.274489 1.674271
C -4.165116 -0.920722 4.145950
H 0.695957 5.340514 -0.242589
C -6.188951 -4.505933 2.820549
H 2.777700 4.311657 -1.159547
C -6.568109 -4.407867 1.335033
C -5.156693 -5.649477 2.970355
C -5.612446 -0.644809 6.198431
C -6.700833 -1.359524 6.976094
C -4.415173 -0.448678 7.121260
C -6.113183 0.738082 5.754731
C 4.847421 -0.598269 -2.218914
C 6.179335 -0.973910 -2.219262
C 6.935881 -0.792738 -3.359657
C 6.341545 -0.267506 -4.490736
C 4.990898 0.084865 -4.430476
C -0.551556 0.006745 -2.384759
C -1.834566 0.372413 -2.039221
C -2.218691 1.708764 -2.205673
C -1.334316 2.637894 -2.721344
C -0.040879 2.232335 -3.037827
C 0.020750 -1.349551 -2.397651
H -6.957774 -5.257215 1.040477
C -0.721837 -2.493095 -2.140109
C -0.123270 -3.738029 -2.293489
C 1.190662 -3.796204 -2.719114
H -7.222722 -3.688166 1.212498
H -3.382120 4.457924 -0.479387
H -8.052312 -4.073779 3.581948
H -3.438504 8.172781 1.103022
H -0.451638 5.633049 2.065841
H -7.194158 -5.024517 4.539635
H -7.872088 -5.621221 3.219297
C 1.886782 -2.619417 -2.937731
H -4.790845 8.674743 -0.607558
H -5.664476 8.177767 0.635883
H -6.288411 8.159484 -0.836489
H -5.653294 6.562179 -2.461106
H -4.576341 5.416972 -2.164028
H -7.474466 -1.505791 6.392825
H -4.099467 6.929509 -2.373519
H -6.084747 5.754384 1.014520
H -5.707692 4.702257 -0.129677
H -6.862082 5.780978 -0.383648
H -1.757384 9.143464 4.325657
H -1.985266 7.561118 4.375678
H 7.855738 -1.028761 -3.367199
H 0.761307 7.660845 2.168577
H 0.229754 7.095722 3.567436
H 0.626335 8.639839 3.427340