174
Fe2 H88 C72 N10 O2
H 0.924138 2.438368 6.464116
H 3.643384 3.090686 6.260204
H 4.669661 3.444526 5.083972
H 1.874585 4.083604 4.983272
H 3.021127 5.151143 5.311136
H 2.937532 4.487993 3.857807
H -6.077511 -3.724950 3.944855
H 6.477067 4.240064 1.594870
H 7.022445 4.454294 0.105625
H 4.389324 5.169196 0.958236
H 4.944921 5.393054 -0.525928
H 7.224214 3.380738 -1.913268
H 6.944284 1.973802 -2.621567
H 5.151810 4.202755 -2.729298
H 4.875276 2.795819 -3.440857
C 1.932443 -6.714539 1.953929
H 5.865140 -1.577838 -3.982165
H 5.187808 -2.948668 -4.451699
H 3.930628 -0.392353 -4.748228
H 4.650728 -1.175857 -5.944238
H 3.322300 -1.772811 -5.283373
H 3.471708 -4.477161 -3.895377
H 2.372872 -4.785267 -2.780330
H 5.092941 -5.557939 -2.627140
H 4.025229 -5.823920 -1.465851
C 2.109915 -3.379174 1.235275
C 1.368953 -4.261728 2.113662
C 1.240005 -3.615428 3.302884
C 1.896099 -2.333179 3.166322
C 1.978272 -1.363609 4.147824
C 2.622880 -0.143582 4.061264
C 2.715518 0.846087 5.111743
C 3.415797 1.891962 4.611464
C 3.782382 1.545824 3.259141
C 4.538185 2.336789 2.410551
C 4.900244 2.044931 1.113975
C 5.692832 2.899564 0.255859
C 5.815618 2.259402 -0.938077
C 5.105606 1.004834 -0.815641
C 5.020982 0.038393 -1.800064
H 5.571871 6.216274 0.695958
C 4.376791 -1.183800 -1.705300
C 4.339351 -2.178404 -2.750670
H -2.097796 4.261728 -5.866603
C 3.601175 -3.219464 -2.277292
H -0.857631 5.195674 -6.255255
C 3.201731 -2.868031 -0.929080
H -1.831061 5.615708 -5.057762
C 2.453198 -3.671874 -0.071987
C 0.884858 -5.634965 1.748409
C 0.531145 -4.105268 4.539372
C 2.102125 0.724530 6.483184
C 0.769799 1.480352 6.598936
C 3.731179 3.199004 5.280088
C 2.807845 4.332737 4.815799
C 6.213927 4.254025 0.641424
C 5.189392 5.355744 0.422839
C 6.512163 2.742863 -2.173914
C 5.569768 3.428880 -3.160324
C 4.999469 -2.044811 -4.093893
C 4.149589 -1.276954 -5.108484
C 3.328523 -4.566223 -2.918581
C 4.146248 -5.721620 -2.432358
N 0.447596 -0.373458 0.225349
N 2.427686 -2.214269 1.893768
N 3.285293 0.303773 2.935360
N 4.543151 0.894590 0.437849
N 3.688057 -1.625137 -0.597654
O 1.591087 0.370329 0.398176
H 2.097796 -4.261728 5.866603
H 0.857631 -5.195674 6.255255
H 1.831061 -5.615708 5.057762
C -1.406247 4.861090 -5.515105
H -5.571871 -6.216274 -0.695958
Fe -3.143392 0.495256 -1.037982
H -1.544500 1.556175 -4.970643
H -4.838766 -3.167712 -2.759189
H -5.448010 -0.232283 2.626138
H -2.149039 4.502436 0.420202
H -0.089073 5.851602 -2.296462
H -0.606449 5.634965 -0.798925
H -0.138813 3.325376 -5.007803
H 0.215681 4.693798 -4.263740
H -1.951327 0.232283 -6.687568
H -2.737110 -1.080777 -7.154580
H -0.147215 -1.151786 -5.918482
H -0.386489 -1.333520 -7.489183
C 1.406247 -4.861090 5.515105
H -0.924138 -2.438368 -6.464116
H -3.643384 -3.090686 -6.260204
H -4.669661 -3.444526 -5.083972
H -1.874585 -4.083604 -4.983272
H -3.021127 -5.151143 -5.311136
H -2.937532 -4.487993 -3.857807
H -6.477067 -4.240064 -1.594870
H -7.022445 -4.454294 -0.105625
H -4.389324 -5.169196 -0.958236
H -4.944921 -5.393054 0.525928
H -7.224214 -3.380738 1.913268
H -6.944284 -1.973802 2.621567
H -5.151810 -4.202755 2.729298
H -4.875276 -2.795819 3.440857
H -5.865140 1.577838 3.982165
H -5.187808 2.948668 4.451699
H -3.930628 0.392353 4.748228
H -4.650728 1.175857 5.944238
H -3.322300 1.772811 5.283373
H -3.471708 4.477161 3.895377
H -2.372872 4.785267 2.780330
H 6.077511 3.724950 -3.944855
H -2.246292 6.692875 -2.883787
H -5.092941 5.557939 2.627140
H -1.540004 7.591918 -1.762651
H -4.025229 5.823920 1.465851
H -2.688420 6.555672 -1.351904
C -2.109915 3.379174 -1.235275
C -1.368953 4.261728 -2.113662
C -1.240005 3.615428 -3.302884
C -1.896099 2.333179 -3.166322
C -1.978272 1.363609 -4.147824
C -2.622880 0.143582 -4.061264
C -2.715518 -0.846087 -5.111743
C -3.415797 -1.891962 -4.611464
C -3.782382 -1.545824 -3.259141
C -4.538185 -2.336789 -2.410551
C -4.900244 -2.044931 -1.113975
C -5.692832 -2.899564 -0.255859
C -5.815618 -2.259402 0.938077
C -5.105606 -1.004834 0.815641
C -5.020982 -0.038393 1.800064
C -4.376791 1.183800 1.705300
C -4.339351 2.178404 2.750670
C -3.601175 3.219464 2.277292
C -3.201731 2.868031 0.929080
C -2.453198 3.671874 0.071987
C -0.884858 5.634965 -1.748409
C -0.531145 4.105268 -4.539372
C -2.102125 -0.724530 -6.483184
C -0.769799 -1.480352 -6.598936
C -3.731179 -3.199004 -5.280088
C -2.807845 -4.332737 -4.815799
C -6.213927 -4.254025 -0.641424
H -3.856994 6.541229 2.886653
C -5.189392 -5.355744 -0.422839
H 2.246292 -6.692875 2.883787
C -6.512163 -2.742863 2.173914
H 1.540004 -7.591918 1.762651
C -5.569768 -3.428880 3.160324
H 2.688420 -6.555672 1.351904
C -4.999469 2.044811 4.093893
C -4.149589 1.276954 5.108484
C -3.328523 4.566223 2.918581
C -4.146248 5.721620 2.432358
N -0.447596 0.373458 -0.225349
N -2.427686 2.214269 -1.893768
N -3.285293 -0.303773 -2.935360
N -4.543151 -0.894590 -0.437849
N -3.688057 1.625137 0.597654
O -1.591087 -0.370329 -0.398176
C -1.932443 6.714539 -1.953929
Fe 3.143392 -0.495256 1.037982
H 1.544500 -1.556175 4.970643
H 4.838766 3.167712 2.759189
H 5.448010 0.232283 -2.626138
H 2.149039 -4.502436 -0.420202
H 0.089073 -5.851602 2.296462
H 0.606449 -5.634965 0.798925
H 3.856994 -6.541229 -2.886653
H 0.138813 -3.325376 5.007803
H -0.215681 -4.693798 4.263740
H 1.951327 -0.232283 6.687568
H 2.737110 1.080777 7.154580
H 0.147215 1.151786 5.918482
H 0.386489 1.333520 7.489183