77
Ni1 H28 C44 N4
N 0.971025 -1.616884 -0.009890
H -1.507997 4.728340 -0.556643
H -1.005332 -5.395081 0.981896
C -3.219150 0.836484 0.524149
H -1.636274 -7.578769 0.447858
C -4.621393 1.215198 0.881022
H -2.223961 -8.109775 -1.729267
C -5.609721 1.244583 -0.087735
H -2.165789 -6.473501 -3.386482
C -6.910536 1.619419 0.227320
H -1.540812 -4.291304 -2.852443
C -7.222726 1.963380 1.510848
H -3.491812 -3.593240 -0.066402
C -6.253342 1.932504 2.493309
H -4.728340 -1.507997 0.556643
Ni -0.000000 0.000000 0.000000
C -4.955659 1.559159 2.173310
C -0.836484 -3.219150 -0.524149
H 1.005332 5.395081 0.981896
C -2.304507 1.803332 0.221810
C -1.215198 -4.621393 -0.881022
H 1.636274 7.578769 0.447858
C -2.716185 3.135322 -0.009890
C -1.244583 -5.609721 0.087735
H 2.223961 8.109775 -1.729267
C -1.575119 3.799826 -0.367328
C -1.619419 -6.910536 -0.227320
H 2.165789 6.473501 -3.386482
C -0.481784 2.842971 -0.408299
C -1.963380 -7.222726 -1.510848
H 1.540812 4.291304 -2.852443
N -0.971025 1.616884 -0.009890
C -1.932504 -6.253342 -2.493309
H 3.491812 3.593240 -0.066402
C -1.559159 -4.955659 -2.173310
H 4.728340 1.507997 0.556643
H 5.395081 -1.005332 -0.981896
C 0.836484 3.219150 -0.524149
C -1.803332 -2.304507 -0.221810
H 7.578769 -1.636274 -0.447858
C 1.215198 4.621393 -0.881022
C -3.135322 -2.716185 0.009890
H 8.109775 -2.223961 1.729267
C 1.244583 5.609721 0.087735
C -3.799826 -1.575119 0.367328
H 6.473501 -2.165789 3.386482
C 1.619419 6.910536 -0.227320
C -2.842971 -0.481784 0.408299
H 4.291304 -1.540812 2.852443
C 1.963380 7.222726 -1.510848
N -1.616884 -0.971025 0.009890
H 3.593240 -3.491812 0.066402
C 1.932504 6.253342 -2.493309
H 1.507997 -4.728340 -0.556643
C 1.559159 4.955659 -2.173310
C 3.219150 -0.836484 0.524149
C 1.803332 2.304507 -0.221810
C 4.621393 -1.215198 0.881022
C 3.135322 2.716185 0.009890
C 5.609721 -1.244583 -0.087735
C 3.799826 1.575119 0.367328
C 6.910536 -1.619419 0.227320
C 2.842971 0.481784 0.408299
C 7.222726 -1.963380 1.510848
N 1.616884 0.971025 0.009890
C 6.253342 -1.932504 2.493309
H -5.395081 1.005332 -0.981896
C 4.955659 -1.559159 2.173310
H -7.578769 1.636274 -0.447858
C 2.304507 -1.803332 0.221810
H -8.109775 2.223961 1.729267
C 2.716185 -3.135322 -0.009890
H -6.473501 2.165789 3.386482
C 1.575119 -3.799826 -0.367328
H -4.291304 1.540812 2.852443
C 0.481784 -2.842971 -0.408299
H -3.593240 3.491812 0.066402