88
Ni1 H34 C46 N4 O3
H -2.524767 -0.631916 4.385473
H -0.846837 -5.047085 1.821243
H -4.609378 -5.409004 5.198372
H -5.040396 -5.039871 2.925753
H -3.627838 -3.676363 1.682250
Ni 0.095086 -0.425611 0.117746
H 0.922145 -5.378944 0.105579
H 2.316361 -2.257545 -3.988999
H 1.270271 -0.137735 -4.733495
H 1.205856 4.263005 1.050804
H -0.742254 3.780847 -2.296379
C -1.461340 -2.341111 2.368234
H 4.164332 -3.467147 -1.479835
H 5.388625 -5.180550 -2.486084
C -0.423703 -4.368818 1.307208
H -1.767199 4.100682 2.589578
H 4.292418 -6.845857 -3.696699
H 1.962766 -6.866298 -3.783591
H 0.729843 -5.208205 -2.689150
H -2.378327 1.719954 -3.690709
H 1.481045 2.544792 -4.589371
H 0.808512 3.465822 -6.619606
H -1.450351 3.515120 -7.200132
H -3.052493 2.639781 -5.729761
C -2.348786 -3.200698 3.197005
H 3.042764 5.015700 -0.596771
H 4.216308 3.938360 -0.450011
C -2.093812 -3.432398 4.551083
C -1.424703 0.979404 3.705169
C -0.623701 1.081847 2.517882
C -1.926517 -0.278294 3.737786
C -4.032268 -4.850855 4.690454
C -1.382014 -0.975679 2.606062
C -4.289458 -4.631059 3.340008
C -3.451950 -3.818244 2.604676
H -1.686459 5.343952 0.051286
C -0.665896 -2.960220 1.393470
C 1.123460 3.624657 0.285316
C 0.390726 2.380546 0.750315
H -3.147715 4.691055 0.056152
C 0.021843 2.246720 2.062052
C 0.522948 -4.552663 0.353743
C 0.807839 -3.268994 -0.208708
H -2.487433 5.162391 -1.322365
C 1.545892 -3.040059 -1.377585
C 1.447647 -1.849575 -2.076950
C 1.796700 -1.667413 -3.456701
C 1.247667 -0.500135 -3.856004
C 0.623442 0.089637 -2.705703
C 0.033902 1.369819 -2.654241
C -0.115144 2.008527 -1.444991
C -0.545580 3.449589 -1.373908
C 0.118891 3.427826 2.980685
C 2.327256 -4.154793 -1.992514
C -0.969085 4.295710 3.066505
C 3.708336 -4.161887 -1.939451
C 4.440048 -5.174538 -2.551688
H 3.511066 4.535947 0.856122
C 3.792846 -6.170476 -3.253740
C 2.413211 -6.178532 -3.307429
C 1.679456 -5.182955 -2.665827
H -1.344014 -3.025871 4.968024
H -2.762533 -4.412224 6.214160
N -0.613507 -0.101182 1.846649
C -0.375629 2.022355 -3.940260
N 0.086015 -2.296262 0.456959
C 0.559021 2.557177 -4.819016
N 0.750943 -0.737246 -1.627742
C 0.160033 3.107510 -6.024967
N 0.141354 1.434748 -0.222821
C -1.180778 3.138772 -6.370010
C -2.131165 2.619341 -5.498719
C -1.727649 2.068647 -4.288036
C 3.370280 4.255791 -0.072793
C -2.308378 4.769210 -0.442711
H -1.574212 1.664644 4.346299
O -1.731412 3.473998 -0.609280
O 0.457306 4.266492 -0.787931
O 2.412526 3.207789 -0.109692
H 2.007480 3.135165 3.654846
H 2.121907 5.078224 4.946334
H 0.316078 6.518685 5.069246
H -1.637482 6.034122 3.897764
C -2.938661 -4.257838 5.293991
C 1.260910 3.722892 3.692023
C 1.327673 4.879469 4.465445
C 0.261052 5.731601 4.539637
C -0.894075 5.446155 3.845524