325
Fe1 Si8 H188 C116 N4 O8
Fe 0.000000 -0.691640 0.000000
Si 4.066682 -3.578276 4.391529
Si -4.066682 -3.578276 -4.391529
Si -4.315394 -3.867027 3.758237
Si 4.315394 -3.867027 -3.758237
H -0.434955 4.369129 3.649812
H 0.434955 4.369129 -3.649812
H -2.749849 -0.073303 4.327813
H 2.749849 -0.073303 -4.327813
H -0.426197 3.643982 1.547617
H 0.426197 3.643982 -1.547617
H -0.411602 -0.106727 5.123387
H 0.411602 -0.106727 -5.123387
H 1.010029 2.988589 1.818342
H -1.010029 2.988589 -1.818342
H 4.308680 0.112706 2.732928
H -4.308680 0.112706 -2.732928
H -0.256886 2.532284 2.685998
H 0.256886 2.532284 -2.685998
H 5.091015 0.026967 0.408351
H -5.091015 0.026967 -0.408351
H -0.288997 5.951664 2.276936
H 0.288997 5.951664 -2.276936
H -4.069309 -1.634040 -6.622969
H 0.537125 6.319323 3.597268
H -0.537125 6.319323 -3.597268
H -3.829938 0.348125 -7.786495
H 1.310703 5.897895 2.259898
H -1.310703 5.897895 -2.259898
H -3.683980 3.845977 -5.481398
H -5.817886 -2.866354 -5.849496
H -4.515941 5.861565 -4.989951
H -7.662795 -4.018741 -5.128754
H 3.289893 6.201614 4.018782
H -3.289893 6.201614 -4.018782
H -6.436748 -5.044701 -5.055522
H -3.050522 6.072279 -5.595596
H -6.985550 -4.357337 -3.718008
H 4.971329 3.783489 3.618511
H -4.971329 3.783489 -3.618511
H -7.236598 -1.619508 -4.431530
H 3.809504 2.693589 3.474386
H -3.809504 2.693589 -3.474386
H -6.258679 -1.927587 -3.203621
C 3.560791 -0.924879 6.245156
H -3.713172 4.077036 -2.675356
H 3.713172 4.077036 2.675356
H -5.739069 -1.052760 -4.440796
C 3.419504 0.250760 6.934828
H -1.415793 4.247060 -7.028212
H 4.396255 -5.938419 1.542892
H -4.396255 -5.938419 -1.542892
H -0.747305 3.742800 7.679204
H 0.747305 3.742800 -7.679204
H 5.222377 -5.859946 2.910796
H -5.222377 -5.859946 -2.910796
H -1.129715 3.417283 6.160991
H 1.129715 3.417283 -6.160991
H 3.692737 -6.326423 2.927262
H -3.692737 -6.326423 -2.927262
C 5.834525 -3.066895 4.868468
H 0.049626 2.516299 -6.923239
H -0.049626 2.516299 6.923239
H -3.870806 -5.647779 -5.471943
C 6.819158 -4.226549 4.673797
H 0.000000 6.056294 -7.287558
H 0.000000 6.056294 7.287558
H 1.585104 -5.777113 5.951485
H -1.585104 -5.777113 -5.951485
C 6.308597 -1.805518 4.174293
H -1.018787 6.362919 -6.090903
H 1.018787 6.362919 6.090903
H 1.380763 -4.271598 5.452649
H -1.380763 -4.271598 -5.452649
H -0.490419 5.942945 5.766264
H 0.490419 5.942945 -5.766264
H 1.821556 -5.408001 4.415330
H -1.821556 -5.408001 -4.415330
H -3.278217 -5.259774 -7.627473
C 3.383598 -4.790391 5.634302
H -4.521779 -4.313741 -7.269433
H -7.005984 1.780980 2.745123
H 7.005984 1.780980 -2.745123
H -3.041765 -3.703397 -7.338022
C 3.573052 -4.491031 7.094825
H -7.338768 3.507381 1.403911
H 7.338768 3.507381 -1.403911
H -6.626493 -2.100517 3.742041
H 6.626493 -2.100517 -3.742041
H -7.513918 3.565509 -0.898965
H 7.513918 3.565509 0.898965
H -7.867136 -0.153229 3.702626
H 7.867136 -0.153229 -3.702626
H -5.943410 3.853243 -1.017849
H 5.943410 3.853243 1.017849
H -6.460101 2.462531 -0.415992
H 6.460101 2.462531 0.415992
H -5.248650 -5.984921 3.312536
H 5.248650 -5.984921 -3.312536
H -8.086073 5.490999 0.790581
H 8.086073 5.490999 -0.790581
H -5.788694 -5.865759 1.058233
H 5.788694 -5.865759 -1.058233
H -6.906733 5.849940 1.811686
H 6.906733 5.849940 -1.811686
H -5.450072 -4.302115 1.039607
H 5.450072 -4.302115 -1.039607
H -6.664442 5.970555 0.235839
H 6.664442 5.970555 -0.235839
H -4.288246 -5.368764 1.302664
H 4.288246 -5.368764 -1.302664
H -2.898726 4.489745 1.861190
H 2.898726 4.489745 -1.861190
H -7.470130 -5.663764 2.796489
H 7.470130 -5.663764 -2.796489
H -2.749849 6.278634 0.423870
H 2.749849 6.278634 -0.423870
H -7.134427 -4.957509 4.192187
H 7.134427 -4.957509 -4.192187
H -4.320357 6.137673 0.141358
H 4.320357 6.137673 -0.141358
H -7.289143 -4.075416 2.865378
H 7.289143 -4.075416 -2.865378
H -3.800746 6.458831 1.621779
H 3.800746 6.458831 -1.621779
H -5.882107 -3.417117 5.472364
H 5.882107 -3.417117 -5.472364
H -2.008382 4.184573 -0.157028
H 2.008382 4.184573 0.157028
H -5.108530 -4.630539 7.271826
H 5.108530 -4.630539 -7.271826
H -2.563022 2.854895 0.542266
H 2.563022 2.854895 -0.542266
H -4.991764 -5.559133 5.975504
H 4.991764 -5.559133 -5.975504
H -3.389145 3.539352 -0.647240
H 3.389145 3.539352 0.647240
H -3.683980 -4.857238 6.575333
H 3.683980 -4.857238 -6.575333
H -6.109802 3.715189 3.966762
H 6.109802 3.715189 -3.966762
H -4.702767 -2.135394 7.058397
H 4.702767 -2.135394 -7.058397
H -5.482182 5.650851 4.962644
H 5.482182 5.650851 -4.962644
H -3.357034 -2.295246 6.204963
H 3.357034 -2.295246 -6.204963
H -4.346629 5.913881 3.867117
H 4.346629 5.913881 -3.867117
H -4.591839 -1.471282 5.605529
H 4.591839 -1.471282 -5.605529
H -5.890865 5.993807 3.453565
H 5.890865 5.993807 -3.453565
H -2.332409 -4.438716 2.646469
H 2.332409 -4.438716 -2.646469
H -4.364144 3.532086 5.472842
H 4.364144 3.532086 -5.472842
H -1.398278 -6.191275 3.952042
H 1.398278 -6.191275 -3.952042
H -4.212348 2.411669 4.342739
H 4.212348 2.411669 -4.342739
H -2.729415 -6.176743 4.834098
H 2.729415 -6.176743 -4.834098
H -3.292812 3.719549 4.302517
H 3.292812 3.719549 -4.302517
H -2.808232 -6.541497 3.279706
H 2.808232 -6.541497 -3.279706
H -0.650973 -3.925737 3.985578
H 0.650973 -3.925737 -3.985578
H -1.722304 -2.751551 4.171741
H 1.722304 -2.751551 -4.171741
H -1.582185 -3.892313 5.285583
H 1.582185 -3.892313 -5.285583
C -2.691757 1.286892 -6.411231
C 2.097416 1.147385 5.162644
C -2.097416 1.147385 -5.162644
H 2.927917 -4.328273 2.507340
H -2.927917 -4.328273 -2.507340
H 4.124773 -3.789136 0.736373
H -4.124773 -3.789136 -0.736373
H 4.151046 -2.536477 1.732214
H -4.151046 -2.536477 -1.732214
H 5.429638 -3.494136 1.614725
H -5.429638 -3.494136 -1.614725
C 0.467066 4.344425 3.220231
C -0.467066 4.344425 -3.220231
C -1.949999 -0.229958 2.356915
C 1.949999 -0.229958 -2.356915
C 0.175150 3.289401 2.234490
C -0.175150 3.289401 -2.234490
C -1.972768 -0.134338 3.783691
C 1.972768 -0.134338 -3.783691
C 0.510853 5.742403 2.803611
C -0.510853 5.742403 -2.803611
C -0.698555 -0.145963 4.217190
C 0.698555 -0.145963 -4.217190
C 3.283179 4.274671 4.671576
C -3.283179 4.274671 -4.671576
C 0.140704 -0.228214 3.062439
C -0.140704 -0.228214 -3.062439
C 3.558456 5.726418 4.830280
C -3.558456 5.726418 -4.830280
C 1.538981 -0.169505 3.092538
C -1.538981 -0.169505 -3.092538
C 4.008007 3.652701 3.507452
C -4.008007 3.652701 -3.507452
C 2.337079 -0.144219 1.947638
C -2.337079 -0.144219 -1.947638
C 0.682208 4.332799 6.351934
C -0.682208 4.332799 -6.351934
C 3.764257 0.005169 1.962040
C -3.764257 0.005169 -1.962040
C -0.404596 3.424549 6.819300
C 0.404596 3.424549 -6.819300
C 4.187535 -0.035520 0.696811
C -4.187535 -0.035520 -0.696811
C 0.265644 5.806344 6.376549
C -0.265644 5.806344 -6.376549
C 3.048771 -0.189705 -0.151481
C -3.048771 -0.189705 0.151481
C -3.093434 -0.218914 1.543648
C 3.093434 -0.218914 -1.543648
C 2.210388 -0.045693 4.432965
C -2.210388 -0.045693 -4.432965
C 2.967034 -1.089090 5.000925
C -2.967034 -1.089090 -5.000925
C -3.560791 -0.924879 -6.245156
C -6.485790 0.986079 2.761684
C 6.485790 0.986079 -2.761684
C -3.419504 0.250760 -6.934828
C -5.207490 0.971547 2.218322
C 5.207490 0.971547 -2.218322
C -5.834525 -3.066895 -4.868468
C -6.819158 -4.226549 -4.673797
C -6.308597 -1.805518 -4.174293
C 3.911674 -4.309381 2.678689
C -3.911674 -4.309381 -2.678689
C 4.343710 -5.730611 2.497751
C -4.343710 -5.730611 -2.497751
C -3.383598 -4.790391 -5.634302
C 1.909131 -5.088297 5.336337
C -1.909131 -5.088297 -5.336337
C -3.573052 -4.491031 -7.094825
C -6.645176 4.020361 0.900512
C 6.645176 4.020361 -0.900512
C -6.641089 3.423096 -0.475961
C 6.641089 3.423096 0.475961
C -7.116912 5.460482 0.939254
C 7.116912 5.460482 -0.939254
C -3.527805 4.504277 1.083363
C 3.527805 4.504277 -1.083363
C -3.605163 5.972009 0.791621
C 3.605163 5.972009 -0.791621
C -2.816989 3.707923 0.131053
C 2.816989 3.707923 -0.131053
C -5.222669 4.079942 3.687157
C 5.222669 4.079942 -3.687157
C -5.236973 5.534595 4.021077
C 5.236973 5.534595 -4.021077
C -4.180237 3.373687 4.525830
C 4.180237 3.373687 -4.525830
C -4.441210 -0.193919 2.202545
C 4.441210 -0.193919 -2.202545
C -4.983298 -1.336134 2.818286
C 4.983298 -1.336134 -2.818286
C -6.261306 -1.314336 3.354311
C 6.261306 -1.314336 -3.354311
C -6.996059 -0.161949 3.327313
C 6.996059 -0.161949 -3.327313
O 1.375508 2.143553 4.588949
O -1.375508 2.143553 -4.588949
O -4.654601 2.089204 1.671275
O 4.654601 2.089204 -1.671275
C -5.497946 -5.086843 2.950443
C 5.497946 -5.086843 -2.950443
C -5.232886 -5.162410 1.455284
C 5.232886 -5.162410 -1.455284
C -6.978252 -4.932804 3.225579
C 6.978252 -4.932804 -3.225579
C -4.891344 -3.533373 5.520561
C 4.891344 -3.533373 -5.520561
C -4.647011 -4.755514 6.416501
C 4.647011 -4.755514 -6.416501
C -4.335245 -2.241478 6.154681
C 4.335245 -2.241478 -6.154681
C -2.561855 -4.520095 3.615856
C 2.561855 -4.520095 -3.615856
C -2.355762 -5.987827 3.949956
C 2.355762 -5.987827 -3.949956
C -1.543652 -3.701944 4.325487
C 1.543652 -3.701944 -4.325487
H 2.595133 2.096324 6.898650
C 4.448800 -3.460713 1.601929
C -4.448800 -3.460713 -1.601929
N -0.639880 -0.287214 1.909133
N 0.639880 -0.287214 -1.909133
N 1.899205 -0.244490 0.635532
N -1.899205 -0.244490 -0.635532
O 3.085844 -2.236973 4.284182
O -3.085844 -2.236973 -4.284182
O -4.213224 -2.455243 2.866205
O 4.213224 -2.455243 -2.866205
H 4.069309 -1.634040 6.622969
H 3.829938 0.348125 7.786495
H 3.683980 3.845977 5.481398
H 5.817886 -2.866354 5.849496
H 4.515941 5.861565 4.989951
H 7.662795 -4.018741 5.128754
H 6.436748 -5.044701 5.055522
H 3.050522 6.072279 5.595596
H 6.985550 -4.357337 3.718008
H 7.236598 -1.619508 4.431530
H 6.258679 -1.927587 3.203621
H 5.739069 -1.052760 4.440796
H 1.415793 4.247060 7.028212
H 3.870806 -5.647779 5.471943
H 3.278217 -5.259774 7.627473
H 4.521779 -4.313741 7.269433
H 3.041765 -3.703397 7.338022
Si 1.428053 3.792645 4.723804
Si -1.428053 3.792645 -4.723804
Si -5.041973 3.698332 1.820629
Si 5.041973 3.698332 -1.820629
H -2.595133 2.096324 -6.898650
C 2.691757 1.286892 6.411231