97
Cu1 B1 H39 C50 N4 O2
C -1.253066 -2.999216 -3.607333
C 3.596783 2.551459 -3.529224
H -6.027164 -5.425741 -0.569981
C 3.039474 3.168923 -4.651085
H -5.450016 -6.880573 -0.238982
C 3.879946 3.711641 -5.623846
H -5.298515 -5.697642 0.829140
C 5.250674 3.611980 -5.510365
C 5.806179 3.012932 -4.395232
H -4.854832 -5.150591 -2.557441
C 4.972921 2.499462 -3.400294
C 1.526264 5.215220 2.552553
C 0.853525 6.367819 2.223879
C 2.662524 6.421983 4.300016
C 2.433469 5.241218 3.587379
C -2.318987 -0.474114 3.760174
C -1.830214 -1.267068 4.777162
C -2.667079 -1.628880 5.840146
C -3.949431 -1.213987 5.889345
H -4.504936 -1.467473 6.618354
C 0.222269 -4.294807 -2.246734
C -4.436399 -0.441616 4.906501
C -3.631999 -0.068971 3.822609
C 0.023875 -5.389993 -3.067319
H -5.338194 -0.144800 4.944657
C -0.814794 -5.293582 -4.167006
N -0.525679 -0.619272 0.404768
N 1.162480 0.264676 -1.669370
N 1.703196 2.661953 -0.258325
N 0.080146 1.760672 1.861344
O -3.689353 -4.118234 -0.415503
Cu 0.606614 1.014624 0.083375
B -2.342433 -4.020740 -0.212474
C -5.305729 -5.917546 -0.126947
H 0.640702 8.336121 2.682666
O -1.710095 -5.226420 -0.148361
H 2.132269 8.362119 4.439296
H -2.629204 -2.458665 1.988328
H 1.409030 -1.907280 -4.036557
H 2.862723 0.052355 -4.398202
H 3.690570 4.625921 -1.868854
H 2.945688 5.587865 0.293458
H -0.026626 3.861133 4.303309
H -1.409978 1.850583 4.714992
H -2.037627 -4.008824 -5.184863
H -1.696749 -2.180264 -3.794135
H 2.096198 3.220920 -4.750225
H -3.256853 -5.215587 -2.630089
H 3.502996 4.154699 -6.373992
H -4.108146 -6.565341 -2.506735
H 5.811590 3.954294 -6.196509
H -2.120592 -7.074478 1.670858
H 6.749455 2.951186 -4.305563
H -3.085512 -5.813552 1.867337
H 5.357085 2.109485 -2.623984
H -3.695125 -7.229386 1.436170
H 0.220466 6.361320 1.514828
H -2.140431 -7.221803 -1.828233
H -1.395549 -7.752605 -0.516112
H -2.906957 -8.186996 -0.809425
H 3.284762 6.433899 5.016803
H 2.907812 4.451515 3.818022
H -0.930224 -1.566050 4.755458
H -2.326201 -2.175931 6.537234
H -3.994520 0.466164 3.127782
H 0.797614 -4.372803 -1.494016
H 0.463950 -6.210029 -2.878270
H -0.948260 -6.044288 -4.733170
C -1.314749 -0.851092 1.506966
C -2.021034 -2.089270 1.358174
C -1.681058 -2.647154 0.171616
C -0.729124 -1.712292 -0.427826
C -0.120232 -1.865033 -1.674955
C 0.780660 -0.937754 -2.217451
C 1.488388 -1.152241 -3.465861
C 2.278360 -0.084137 -3.661692
C 2.083572 0.816061 -2.556885
C 2.687955 2.069404 -2.437540
C 2.488117 2.928437 -1.361691
C 3.108011 4.217528 -1.240516
C 2.702203 4.740748 -0.063248
C 1.838645 3.774471 0.547334
C 1.097010 7.538834 2.924789
C 1.261316 3.929379 1.809764
C 1.984375 7.557250 3.956890
C -3.985502 -5.532985 -0.740212
C 0.459621 2.968518 2.417228
C -0.140252 3.124509 3.715943
C -4.057646 -5.623980 -2.238344
C -0.890545 2.029323 3.940402
C -2.746437 -6.259859 -0.120408
C -0.760145 1.182206 2.788220
C -2.928600 -6.627088 1.343047
C -1.428916 -0.034306 2.635208
C -2.254058 -7.460122 -0.885503
C -0.408265 -3.082628 -2.503015
C -1.458675 -4.084653 -4.434641