12
H5 C6 Cl1
C 0.066723 0.045381 0.431556
H -0.364953 -0.331424 -3.253284
H -1.444142 -1.807472 -1.793641
C 0.707448 0.921536 -0.436477
C 0.547267 0.780960 -1.810159
H -1.172648 -1.569104 0.518865
C -0.254998 -0.235771 -2.315472
C -0.895724 -1.111927 -1.447440
C -0.734185 -0.971351 -0.073757
Cl 0.211972 0.213766 2.114359
H 1.255866 1.615248 -0.091286
H 0.984372 1.379936 -2.403792