12
H6 C6
C 0.609326 0.740233 -0.900181
C 0.009518 -0.379052 -1.390204
C -0.767348 -1.134603 -0.354117
C 0.081201 0.387197 1.274717
H 0.993464 1.313917 -1.551485
H -1.082115 -1.292400 1.673137
H 0.129293 0.654648 2.186323
H 1.239035 1.925044 0.628006
H -1.328786 -1.855386 -0.615876
C -0.669735 -0.780230 0.987198
H 0.077679 -0.654528 -2.297704
C 0.734640 1.158795 0.380707