158
Cu1 H77 Pd1 C72 N6 Cl1
H 5.243095 5.443756 3.116497
C -8.667791 -3.281160 -0.678399
Cu -0.315319 -0.000245 -0.091322
H 2.635283 -2.441045 -3.353747
C -9.185138 -2.086578 1.491584
H -2.400228 -0.831987 -4.647796
C -7.154072 -3.470953 1.312672
C -0.784955 1.593461 4.552695
H -4.314412 -0.259816 -3.182187
H -4.866248 -0.104911 2.185174
C -1.723844 2.518704 4.915911
H -3.291214 0.485403 4.018410
H 1.700226 2.529869 3.792932
H 4.484320 -3.621672 -2.623393
H -1.338708 -3.056478 -4.652697
H 6.350601 -4.740895 -1.824416
H 7.458107 -3.917526 0.062738
C 0.094535 1.095254 5.505586
H 0.742176 -3.052291 -8.113297
H 1.930158 -0.699411 -5.059538
H 6.810465 -1.875851 0.940142
H 3.403639 4.021701 3.425304
H -1.373198 -3.678889 -8.995603
H -1.919287 -5.173512 -8.824044
C -3.639944 4.627365 5.527153
H 6.728073 4.951131 1.396001
H -0.348085 -4.881844 -8.735813
H 6.534547 2.982024 0.229396
H -0.035760 -5.807087 -6.436916
H -1.509241 -6.369490 -6.706510
H -1.195001 -5.560077 -5.363444
H -2.948232 -3.895197 -5.745776
C 4.560964 -2.082391 -1.284249
H -3.404264 -4.712984 -7.044727
H -3.038289 5.671229 7.841736
Pd 5.055892 0.395949 0.371545
C 4.967177 -3.272787 -1.882256
H -3.078527 -3.149979 -7.157466
H -1.649116 5.541444 7.062366
C 2.547143 -0.558461 -0.802412
C 6.057438 -3.939855 -1.407282
H 2.493492 -2.756437 -9.078932
C 3.273344 -1.473935 -1.641583
C 6.731905 -3.440251 -0.317144
H 3.390227 -1.507428 -9.520085
C 2.428344 -1.852127 -2.635157
C 6.329524 -2.234505 0.205868
H 1.803696 -1.346941 -9.397543
C 1.171383 -1.210178 -2.410660
C 3.938231 2.648490 2.020967
H 4.057029 -1.873060 -6.005566
C 0.058129 -1.243671 -3.262575
C 4.062778 3.810975 2.771908
H 4.788980 -1.737693 -7.422158
C -1.212246 -0.785934 -2.872400
C 5.130045 4.666441 2.581232
H 3.909490 -3.034149 -7.098646
C -2.371486 -0.696620 -3.707159
C 6.015284 4.353840 1.596970
H -0.999559 2.728035 8.057411
H 2.098775 0.552389 -7.721161
C -3.413845 -0.381228 -2.910143
C 5.888821 3.182982 0.895537
H 3.646984 0.377946 -8.088789
C -2.904162 -0.264002 -1.563156
H 3.183288 0.369573 -6.559459
H -1.921203 4.651090 8.361316
C -3.710840 -0.135613 -0.417628
H -5.446827 1.604626 -1.466592
N 1.242278 -0.469147 -1.250917
C -3.157087 0.022083 0.881322
H -8.924548 -0.236091 -0.559778
N -1.545647 -0.441236 -1.570998
C -3.935024 0.065345 2.100865
H -5.420001 -2.000054 0.361742
H -4.373811 2.481025 6.934922
N -1.842643 0.281654 1.146504
C -3.076611 0.396088 3.096400
H -6.533255 3.381148 -2.030288
H -4.668890 3.790041 7.807424
N 0.937619 0.622166 1.324436
C -1.773663 0.585882 2.494472
H -7.794049 3.654674 -2.976316
H -3.540307 2.755946 8.273086
C -0.660409 1.113396 3.134143
N 5.273753 -1.533944 -0.284302
H -6.822586 2.419621 -3.280221
C 0.585056 1.245972 2.511137
N 4.884785 2.301000 1.110722
H -9.250285 2.367986 0.038230
H -4.323992 5.237216 5.876154
C 1.688730 2.002355 3.001307
Cl 7.463089 0.608071 0.491147
H -9.121906 3.682585 -0.863683
C 2.729172 1.829308 2.128805
H -7.891770 3.212288 0.043131
H 2.342120 -0.552879 8.062313
C 2.278889 0.916625 1.118564
H -8.980115 0.961282 -3.211597
H 2.602709 0.537038 6.920216
C 3.100895 0.231414 0.213711
H -9.754219 2.330307 -2.907692
H 1.522029 -0.619865 6.689837
C 0.261235 -1.782350 -4.641423
H -9.926668 1.081298 -1.922450
H 2.158174 1.702314 9.385772
C -0.614422 -2.736899 -5.179140
H -7.951169 -3.579805 -1.275426
H 0.857142 2.592668 9.111276
C -0.441973 -3.228129 -6.480051
H -9.275194 -2.689451 -1.167589
H 2.060453 2.591273 8.057411
C 0.631043 -2.745272 -7.219718
H -9.164061 -4.058476 -0.349005
H -0.436225 -0.707784 8.287791
C 1.545022 -1.836776 -6.714842
H -9.658414 -2.880640 1.812645
H -0.622087 0.516105 9.302443
C 1.330419 -1.345546 -5.417853
C -1.836894 2.956904 6.240351
H -9.815535 -1.497660 1.023471
H 0.606133 -0.494266 9.483806
C -1.365534 -4.316650 -7.025120
C -0.947824 2.429390 7.158439
H -8.794253 -1.607907 2.253798
C 0.012142 1.492983 6.832476
C -1.240987 -4.531564 -8.529942
H -6.489185 -3.868682 0.714664
C -0.991894 -5.632645 -6.319275
H -7.700160 -4.181283 1.709709
C -2.927155 3.950529 6.689837
C -2.831350 -3.988699 -6.715333
H -6.698040 -2.972745 2.023418
H -2.310171 2.871776 4.258593
C 2.755997 -1.374852 -7.534897
C -2.329332 5.053005 7.567731
C 2.595045 -1.783745 -9.019622
C -3.971430 3.174608 7.500578
H 0.763253 0.472843 5.243835
C 3.988050 -2.067040 -6.964829
C 0.883968 0.834288 7.933888
C 2.936111 0.110002 -7.471175
C -5.178573 -0.185852 -0.523995
C 1.924410 -0.021178 7.356468
C -5.916271 0.871967 -1.087691
C 1.552687 2.045616 8.695122
C -7.299695 0.884527 -1.109748
C 0.033219 -0.040716 8.832860
C -7.976079 -0.224927 -0.560268
C -7.280534 -1.307866 -0.015689
C -5.897110 -1.266000 -0.007846
H -2.992303 5.132551 4.993848
C -8.108290 2.055385 -1.670503
C -7.234548 2.961091 -2.572906
H -4.065319 3.946342 4.964438
C -8.640965 2.906665 -0.507820
C -9.300104 1.562760 -2.503792
C -8.058471 -2.516404 0.514185