12
H5 C5 N1 O1
H -0.839303 1.873087 0.167866
C 0.235446 -1.585160 0.312147
H 0.554631 -2.455556 0.264991
C 0.798819 -0.680929 -0.548976
O 0.937813 1.464491 -1.391365
H 1.492586 -0.880443 -1.189528
H -1.871254 0.344644 1.602823
N 0.381639 0.594212 -0.557775
C -0.610714 0.979356 0.258921
C -1.195286 0.091459 1.108016
C -0.771306 -1.202466 1.154125
H -1.139289 -1.813843 1.771425