13
H8 C4 O1
C 0.482872 0.154393 1.110671
C 0.860454 -0.929518 0.162477
H -0.453484 -1.510560 -1.410768
C -0.000705 -0.705502 -1.069928
H -1.763421 -0.203800 -0.192944
H 0.768458 -1.720575 0.540226
C -0.995458 0.313071 -0.620478
O -0.311890 1.086509 0.367208
H 1.830408 -0.857180 -0.002100
H 1.196438 0.577923 1.471651
H -1.307443 0.904613 -1.289141
H 0.590467 -0.273805 -1.860723
H -0.047503 -0.250470 1.887058