20
H12 C6 N2
C 1.075358 -0.561752 1.236845
C 0.113908 0.997724 -1.052634
C 1.098119 -0.091750 -0.975738
H -2.328802 -0.051892 -0.692313
H -2.098692 -0.440515 0.828460
N 0.872943 -1.214440 -0.177843
N -1.064743 1.567373 0.357814
H -0.800014 -1.486809 -1.418701
H -0.987984 -2.171052 0.006782
H -0.053787 0.947900 2.024955
H 0.904571 1.446136 0.898046
H 0.729659 -1.143027 1.961022
H 2.028062 -0.352494 1.411127
H 0.625149 1.803204 -1.317862
H -0.471697 0.776840 -1.820550
H 1.951873 0.310159 -0.675240
H 1.243554 -0.417264 -1.897867
C -1.634620 -0.133270 0.010904
C -0.672828 -1.350625 -0.447308
C 0.181478 0.793447 1.076136