322
Zn2 Cu2 P4 H132 C164 S4 N10 Cl4
C 6.914202 -2.531035 2.877351
C 8.219570 -2.022835 3.137544
C 8.514984 -0.679261 3.072526
C 7.493575 0.184347 2.432656
C 6.667932 -3.927754 2.951139
C 9.805740 -0.171061 3.272322
C -5.739916 5.812744 11.713738
C -6.234496 6.860699 12.763223
C -7.239963 7.817310 12.539721
C -7.956397 7.749218 11.386037
C 6.641806 -5.852603 -10.704901
C 7.628512 -6.787624 -10.329481
C 7.972292 -3.794891 -9.024738
C 8.925807 -4.198462 -8.097253
C 10.092710 -3.461074 -7.936307
C 10.305599 -2.321776 -8.700633
C 9.352084 -1.918206 -9.628118
C 8.185181 -2.655594 -9.789064
C 5.930859 -5.636701 -7.959168
S 4.474194 -7.495118 -6.550059
H 2.208857 -1.501349 -11.558804
H 0.804361 -2.247041 -11.339730
H -0.161698 -4.821256 -11.419004
H 2.018602 -6.302675 -11.658745
H 2.576600 -7.586461 -13.442507
H 3.095994 -6.191403 -15.436922
H 3.232211 -3.926093 -15.518611
H 3.104569 -2.695452 -13.479888
H 4.967049 -5.263025 -11.772059
H 7.414775 -8.496571 -13.179287
H 8.690245 -8.340457 -11.261421
C 2.694579 -4.460866 -12.350249
C 2.402317 -5.895783 -12.426784
C 2.616643 -6.638154 -13.428427
C 2.952722 -5.734687 -14.616205
C 3.082270 -4.359558 -14.686595
C 2.989479 -3.637117 -13.519015
Cl 5.137948 -1.442889 -11.175905
Zn -1.302602 3.028606 -1.255050
Zn 1.302602 -3.028606 1.255050
Cu 4.583758 -3.225409 -9.689988
Cu -4.583758 3.225409 9.689988
P 2.552481 -3.623831 -10.704042
P -2.552481 3.623831 10.704042
H 2.273102 3.583972 -5.003626
H -2.273102 -3.583972 5.003626
H 3.143154 4.832881 -3.205273
H -3.143154 -4.832881 3.205273
H 1.667653 5.967197 1.598242
H -1.667653 -5.967197 -1.598242
H -0.356792 5.816066 2.988707
H 0.356792 -5.816066 -2.988707
H -5.290850 4.077225 1.943996
H 5.290850 -4.077225 -1.943996
H -4.592112 0.959933 -4.581781
H 4.592112 -0.959933 4.581781
H -2.567997 1.167531 -5.860043
H 2.567997 -1.167531 5.860043
H 5.891178 5.186628 0.547458
H -5.891178 -5.186628 -0.547458
H 1.321036 7.920279 -1.169655
H -1.321036 -7.920279 1.169655
H 1.582515 7.157979 -2.550758
H -1.582515 -7.157979 2.550758
H 7.309162 7.212785 -1.099217
H -7.309162 -7.212785 1.099217
H 7.318456 7.106495 0.498634
H -7.318456 -7.106495 -0.498634
H 4.409942 3.387999 1.291541
H -4.409942 -3.387999 -1.291541
H 3.921291 2.874817 -0.143971
H -3.921291 -2.874817 0.143971
H 2.854711 3.419554 0.918705
H -2.854711 -3.419554 -0.918705
H -3.044831 7.008509 2.107618
H 3.044831 -7.008509 -2.107618
H -3.946523 8.102965 4.114766
H 3.946523 -8.102965 -4.114766
H -4.034962 4.509029 5.954516
H 4.034962 -4.509029 -5.954516
H -3.076486 3.471039 4.071155
H 3.076486 -3.471039 -4.071155
H -5.077001 -1.391737 -2.330788
H 5.077001 1.391737 2.330788
H -5.391787 -0.993149 -0.812971
H 5.391787 0.993149 0.812971
H -4.337950 -0.141167 -1.661044
H 4.337950 0.141167 1.661044
H -0.159278 3.706870 -6.679368
H 0.159278 -3.706870 6.679368
H 0.463984 2.839941 -8.929717
H -0.463984 -2.839941 8.929717
H 1.024236 -0.725763 -7.395321
H -1.024236 0.725763 7.395321
H 0.667458 0.166078 -5.236559
H -0.667458 -0.166078 5.236559
H 2.341682 -1.554494 -8.999335
H -2.341682 1.554494 8.999335
H 0.742945 -1.725555 -9.088658
H -0.742945 1.725555 9.088658
H 2.255094 -4.336307 -8.201099
H -2.255094 4.336307 8.201099
H 0.697337 -5.455675 -6.861389
H -0.697337 5.455675 6.861389
H -1.289937 -6.257834 -7.801604
H 1.289937 6.257834 7.801604
H -1.719455 -5.940624 -10.079295
H 1.719455 5.940624 10.079295
H 4.563209 -6.817518 -8.748951
H -4.563209 6.817518 8.748951
H 3.961707 -5.656630 -7.837586
H -3.961707 5.656630 7.837586
C 0.485911 3.192027 -3.866118
C -0.485911 -3.192027 3.866118
C 1.827308 3.718495 -4.174896
C -1.827308 -3.718495 4.174896
C 2.312144 4.369523 -3.211452
C -2.312144 -4.369523 3.211452
C 1.379534 4.284823 -2.120485
C -1.379534 -4.284823 2.120485
C 1.603698 4.899313 -0.875721
C -1.603698 -4.899313 0.875721
C 0.677895 4.819595 0.215345
C -0.677895 -4.819595 -0.215345
C 0.870846 5.507160 1.362347
C -0.870846 -5.507160 -1.362347
C -0.236430 5.442389 2.121745
C 0.236430 -5.442389 -2.121745
C -1.209905 4.690054 1.359160
C 1.209905 -4.690054 -1.359160
C -2.547641 4.419346 1.677178
C 2.547641 -4.419346 -1.677178
C -3.418505 3.743407 0.927261
C 3.418505 -3.743407 -0.927261
C -4.831614 3.695244 1.206718
C 4.831614 -3.695244 -1.206718
C -5.338368 3.011001 0.222691
C 5.338368 -3.011001 -0.222691
C -4.326242 2.638986 -0.802959
C 4.326242 -2.638986 0.802959
C -4.603700 2.085945 -2.043044
C 4.603700 -2.085945 2.043044
C -3.535613 1.971351 -3.099249
C 3.535613 -1.971351 3.099249
C -3.782025 1.366825 -4.299418
C 3.782025 -1.366825 4.299418
C -2.695834 1.463151 -4.964875
C 2.695834 -1.463151 4.964875
C -1.686831 2.099231 -4.131716
C 1.686831 -2.099231 4.131716
C -0.404050 2.434709 -4.563383
C 0.404050 -2.434709 4.563383
C 2.870551 5.593521 -0.716700
C -2.870551 -5.593521 0.716700
C 3.025664 6.845752 -1.181118
C -3.025664 -6.845752 1.181118
C 4.287865 7.427026 -0.949551
C -4.287865 -7.427026 0.949551
C 5.343653 6.890593 -0.306213
C -5.343653 -6.890593 0.306213
C 5.175257 5.651648 0.129209
C -5.175257 -5.651648 -0.129209
C 3.938624 5.040479 -0.031007
C -3.938624 -5.040479 0.031007
C 2.001100 7.667840 -1.828119
C -2.001100 -7.667840 1.828119
C 6.842285 7.471867 -0.276116
C -6.842285 -7.471867 0.276116
C 3.764243 3.529166 0.569169
C -3.764243 -3.529166 -0.569169
C -3.029615 5.062070 2.894713
C 3.029615 -5.062070 -2.894713
C -3.238441 6.500309 2.887220
C 3.238441 -6.500309 -2.887220
C -3.761092 7.171265 4.115900
C 3.761092 -7.171265 -4.115900
C -3.962679 6.437199 5.221475
C 3.962679 -6.437199 -5.221475
C -3.794863 5.030515 5.197715
C 3.794863 -5.030515 -5.197715
C -3.267727 4.401078 4.036466
C 3.267727 -4.401078 -4.036466
C -5.920688 1.640855 -2.358527
C 5.920688 -1.640855 2.358527
C -6.269566 0.247457 -2.162644
C 6.269566 -0.247457 2.162644
C -5.176100 -0.646045 -1.703412
C 5.176100 0.646045 1.703412
C 0.060995 1.974672 -5.844004
C -0.060995 -1.974672 5.844004
C 0.080446 2.796760 -6.804904
C -0.080446 -2.796760 6.804904
C 0.502320 2.276935 -8.164584
C -0.502320 -2.276935 8.164584
C 0.949572 0.951629 -8.277049
C -0.949572 -0.951629 8.277049
C 0.868027 0.205937 -7.289057
C -0.868027 -0.205937 7.289057
C 0.544112 0.715798 -6.000213
C -0.544112 -0.715798 6.000213
C 1.545227 -1.393398 -9.564073
C -1.545227 1.393398 9.564073
C 1.695798 -2.082623 -10.943038
C -1.695798 2.082623 10.943038
C 1.193640 -4.474152 -9.936344
C -1.193640 4.474152 9.936344
C 1.448163 -4.661821 -8.583124
C -1.448163 4.661821 8.583124
C 0.523671 -5.326134 -7.788084
C -0.523671 5.326134 7.788084
C -0.658001 -5.802779 -8.344050
C 0.658001 5.802779 8.344050
C -0.912524 -5.615111 -9.699502
C 0.912524 5.615111 9.699502
C 0.013297 -4.950797 -10.494533
C -0.013297 4.950797 10.494533
C 4.685756 -6.329248 -7.896947
C -4.685756 6.329248 7.896947
C -1.501925 0.328835 0.048047
C 1.501925 -0.328835 -0.048047
C -0.633747 0.048163 -1.547175
C 0.633747 -0.048163 1.547175
C 0.819238 0.999792 -0.814845
C -0.819238 -0.999792 0.814845
C 0.003859 1.297072 0.818889
C -0.003859 -1.297072 -0.818889
S 1.368459 0.474984 -9.982888
S -1.368459 -0.474984 9.982888
N 0.297143 3.585633 -2.456843
N -0.297143 -3.585633 2.456843
N -0.564711 4.334646 0.179140
N 0.564711 -4.334646 -0.179140
N -3.155859 3.148846 -0.320438
N 3.155859 -3.148846 0.320438
N -2.255653 2.341705 -2.952246
N 2.255653 -2.341705 2.952246
N -0.518985 1.126012 -0.461668
N 0.518985 -1.126012 0.461668
H -7.414775 8.496571 13.179287
H -8.690245 8.340457 11.261421
Cl 4.164203 -2.320115 -7.519496
Cl -4.164203 2.320115 7.519496
H -2.208857 1.501349 11.558804
H -0.804361 2.247041 11.339730
H 0.161698 4.821256 11.419004
H -2.018602 6.302675 11.658745
H -2.576600 7.586461 13.442507
H -3.095994 6.191403 15.436922
H -3.232211 3.926093 15.518611
H -3.104569 2.695452 13.479888
H -4.967049 5.263025 11.772059
C -2.694579 4.460866 12.350249
C -2.402317 5.895783 12.426784
C -2.616643 6.638154 13.428427
C -2.952722 5.734687 14.616205
C -3.082270 4.359558 14.686595
C -2.989479 3.637117 13.519015
Cl -5.137948 1.442889 11.175905
P -6.307454 4.607015 9.341466
H -6.256538 2.775170 0.164517
H -8.911576 2.634003 -3.364377
H -7.724388 -1.077849 -2.208664
H -6.452411 4.269876 -2.059695
H -7.468364 4.381148 -3.291966
H -5.916794 4.093833 -3.558075
H -9.946375 0.003322 -4.226259
H -10.465867 0.822088 -2.953677
H -9.907212 -0.667635 -2.774417
H -8.040107 6.792607 9.473506
H -8.779840 4.977370 7.574524
H 5.824893 -6.849073 -13.619117
H -10.744547 3.736764 7.302299
H -11.103902 1.816898 8.591567
H -9.498051 1.139298 10.150847
H -7.533344 2.379903 10.423072
H -6.648931 6.315962 7.893590
H -5.994799 5.073695 7.147053
H -4.409262 -8.305581 1.286142
H -2.415045 -8.476642 2.194512
H -6.812429 -8.448408 0.210913
C -6.914202 2.531035 -2.877351
C -8.219570 2.022835 -3.137544
C -8.514984 0.679261 -3.072526
C -7.493575 -0.184347 -2.432656
C -6.667932 3.927754 -2.951139
C -9.805740 0.171061 -3.272322
H 4.409262 8.305581 -1.286142
H 2.415045 8.476642 -2.194512
H 6.812429 8.448408 -0.210913
C -6.641806 5.852603 10.704901
C -7.628512 6.787624 10.329481
C 5.739916 -5.812744 -11.713738
C -7.972292 3.794891 9.024738
C 6.234496 -6.860699 -12.763223
C -8.925807 4.198462 8.097253
C 7.239963 -7.817310 -12.539721
C -10.092710 3.461074 7.936307
C 7.956397 -7.749218 -11.386037
C -10.305599 2.321776 8.700633
C -9.352084 1.918206 9.628118
C -8.185181 2.655594 9.789064
C -5.930859 5.636701 7.959168
S -4.474194 7.495118 6.550059
P 6.307454 -4.607015 -9.341466
H 6.256538 -2.775170 -0.164517
H 8.911576 -2.634003 3.364377
H 7.724388 1.077849 2.208664
H 6.452411 -4.269876 2.059695
H 7.468364 -4.381148 3.291966
H 5.916794 -4.093833 3.558075
H 9.946375 -0.003322 4.226259
H 10.465867 -0.822088 2.953677
H 9.907212 0.667635 2.774417
H -5.824893 6.849073 13.619117
H 8.040107 -6.792607 -9.473506
H 8.779840 -4.977370 -7.574524
H 10.744547 -3.736764 -7.302299
H 11.103902 -1.816898 -8.591567
H 9.498051 -1.139298 -10.150847
H 7.533344 -2.379903 -10.423072
H 6.648931 -6.315962 -7.893590
H 5.994799 -5.073695 -7.147053