78
Fe1 H28 C44 Br1 N4
C -0.058615 -3.983386 6.599873
C -1.244821 -3.520130 6.150355
C -1.266426 -2.811065 4.984939
H -1.406343 -2.122484 -4.386254
H -0.424868 0.031498 -5.004341
H 4.511315 6.208242 3.852821
H 2.240753 6.488716 3.702981
C 2.170795 2.440743 -6.307110
C -2.044199 -3.880965 -2.377993
C -3.363120 -4.200832 -2.184451
H 2.014417 3.936082 -2.646455
C -3.968055 -5.205604 -2.973187
H 2.529846 4.460790 -0.336434
H -1.051407 2.870909 -4.617256
H 1.942401 1.927065 4.296095
H -0.795236 3.532703 -6.804493
H 1.903307 -2.800035 4.366852
C -0.091536 -2.557377 4.325230
H 1.937257 -4.005446 6.343897
Br -2.229383 1.261962 0.463749
N -1.074040 -3.589461 1.857046
N -0.304498 -0.442788 -1.861880
N 0.965041 1.692286 -0.588247
H -3.733488 -6.507657 -4.448687
H 4.280864 2.713339 2.025615
N 0.690352 0.294640 1.879938
H -1.575066 -6.039674 -4.819123
H 5.496905 4.363097 2.941299
H -0.452645 -4.490761 -3.512192
C -1.041119 -1.496931 -3.803546
C -0.488653 -0.297824 -4.136522
C 3.981483 5.562205 3.438682
C 2.655360 5.729229 3.361681
C 1.077180 2.201237 -1.878529
C 1.794254 3.428707 -1.899340
C 2.085404 3.702879 -0.642355
C 1.599811 2.631403 0.167192
C 1.757217 2.489590 1.546962
C 1.332323 1.437022 2.331536
C 1.531910 1.296785 3.748766
C 0.775742 2.136633 -4.398741
C -0.240712 2.733823 -5.050125
C 1.113188 -2.990695 4.818451
C -0.085364 3.140354 -6.348732
C 1.133764 -3.709214 5.981786
C 2.504126 3.556339 2.223319
C 3.846710 3.471251 2.344023
C 4.567899 4.448185 2.910082
C -3.301392 -5.863196 -3.934656
C -2.032882 -5.590600 -4.144847
C -1.361076 -4.635726 -3.372759
C 1.883760 4.660904 2.716540
Fe -0.130116 0.085229 0.043783
H -1.132682 -4.122047 2.529241
H -1.795229 -4.709784 0.319113
H 1.192406 3.217563 -7.855448
H 2.992806 2.350928 -6.733735
H 2.728404 1.701740 -4.496553
H 1.020596 -0.233220 5.036966
H -0.050384 -4.511245 7.365717
H -2.028767 -3.680851 6.622765
H -2.073005 -2.503804 4.639476
H 0.959897 4.739689 2.643701
H -3.860031 -3.756485 -1.535147
H -4.861053 -5.418849 -2.821267
C -0.577130 -2.273751 1.921560
C -1.441322 -3.898298 0.604223
C -1.191324 -2.757491 -0.203243
C -1.364162 -2.744886 -1.612148
C -0.947498 -1.602503 -2.367587
C -0.014376 0.390757 -2.960701
C 0.605990 1.616652 -3.016891
C 1.027798 0.100829 4.169148
C 0.523686 -0.518422 3.018299
C -0.074047 -1.766376 3.095300
C 1.101872 2.968603 -6.962656
C -0.648117 -1.747468 0.587575
C 2.007216 2.035788 -4.979368