81
Ni1 H30 C46 N3 Cl1
H 0.083950 -5.048497 0.217732
H -1.274651 -4.384084 2.165455
H -3.603412 -3.981099 1.904784
H -4.888130 -5.073612 3.519615
H -5.137088 -4.150056 5.637690
H 2.031647 -7.683314 -3.516255
H -0.223736 -7.104522 -3.314868
H -0.811064 -5.010824 -2.482375
Ni -0.158892 0.017591 -0.364996
H -4.358605 -0.252626 2.023338
H -4.655040 2.037428 1.849477
H -2.795919 3.474705 1.817689
H 2.107660 -2.503865 -4.084972
H -0.356198 0.209723 2.016101
C -0.238210 -4.175171 0.406339
C -0.986340 -3.818991 1.459451
C -4.464605 -4.249375 3.731237
C -2.315286 -0.242351 1.959913
C -3.600279 0.315892 1.962320
C -3.776780 1.675540 1.877743
C -2.668016 2.532883 1.833160
C -1.378944 2.003180 1.811231
C -0.218348 2.926736 1.752531
C 0.807032 2.752071 0.879768
C 1.083945 -4.323579 -2.176687
C 2.429727 -4.684326 -2.316766
C 2.772691 -5.929814 -2.819051
C 1.789366 -6.827113 -3.181693
C 0.451802 -6.486915 -3.060026
C 0.106346 -5.243711 -2.563069
C 1.944836 -1.781231 -3.489455
C 1.197545 -1.852011 -2.246526
C 0.724045 -2.990188 -1.611868
C -0.009129 -2.978772 -0.396893
C -1.271001 -2.406829 1.314821
C -2.159108 -1.700177 2.081753
C -1.210607 0.614992 1.879164
C -3.031023 -2.402263 3.061668
C -3.687505 -3.600945 2.771374
C -4.618358 -3.701406 4.981927
C -3.229641 -1.838311 4.328882
N 0.837212 1.788559 -0.155904
N 1.127291 -0.577983 -1.703942
N -0.574233 -1.894250 0.186918
Cl -1.986406 0.655861 -1.571959
H 3.111803 -4.072427 -2.065402
H 3.687895 -6.166125 -2.914700
H 2.240520 4.310358 1.338496
H 3.367448 3.714442 -0.764789
H 2.880068 -0.182988 -4.373444
H -4.138840 -2.106588 6.137243
H -2.826791 -1.004942 4.542277
H -0.898762 3.045463 4.281571
H -1.075496 4.866318 5.724817
H -0.627942 7.028513 4.952990
H 0.208095 5.547855 1.281348
H 1.808552 3.760106 -3.571089
H 3.197304 4.971346 -5.016949
H 5.378452 4.220171 -5.433513
H 6.159274 2.307988 -4.378738
H 4.785758 1.109305 -2.914936
C 1.975852 3.626538 0.733742
C 2.599485 3.294332 -0.397799
C 1.871940 2.155013 -0.964715
C 2.251524 1.537406 -2.179818
C 1.887559 0.239405 -2.508931
C 2.365682 -0.518619 -3.648488
C -4.016259 -2.493591 5.278979
C -0.298222 4.112861 2.638208
C -0.702329 3.919930 3.968398
C -0.814087 5.001027 4.821989
C -0.546623 6.288755 4.362796
C -0.162170 6.490818 3.053469
C -0.044895 5.404013 2.185509
C 3.163462 2.307988 -3.093001
C 2.697051 3.463289 -3.730712
C 3.520465 4.183640 -4.596922
C 4.814337 3.740699 -4.838027
C 5.273267 2.607088 -4.214187
C 4.453079 1.890161 -3.341530
H 0.023189 7.368710 2.743464