71
Zn1 H35 C30 N5
Zn 0.033530 -0.112261 0.454465
C 2.643550 -2.712006 0.085608
H -0.326082 -4.751813 -1.559601
C 2.190345 -3.808503 -2.098318
C 1.860747 -0.182404 3.101948
H -2.517747 -4.332564 -0.420443
C 2.730159 -0.291248 4.274118
H -1.953364 -3.010318 2.866900
H -2.703265 -1.701173 3.292565
N -0.413290 -2.053907 0.073543
H -1.244533 -1.619541 2.722706
N -1.841909 0.437399 0.962301
H -3.840124 -3.616012 1.408686
H -4.331734 -2.641460 0.283455
N 1.635522 -0.272099 -1.098373
H -4.603765 -2.300820 1.787888
N 1.200070 -0.102787 2.202417
H -4.929972 -0.177365 0.792616
C -3.774941 1.571185 0.736721
C -2.426457 1.686075 0.834858
C -1.543557 2.933743 0.897239
C -0.786211 2.992196 2.219550
C -2.434335 4.186451 0.759800
C -0.564218 2.857150 -0.260156
C -0.538915 3.654327 -1.473608
C 0.423561 3.180657 -2.259982
H 2.116440 -1.664892 -3.896054
C 1.092620 2.130519 -1.504360
H 2.655960 -3.584769 0.484440
C 2.631122 2.012605 -1.478990
H 2.328757 -2.071039 0.728071
C 3.340949 1.885621 -0.163597
H 3.531207 -2.475171 -0.192873
C 3.375198 2.800712 -2.519861
H 2.161094 -4.661110 -1.658571
C 1.789771 0.842538 -2.003698
H 3.090926 -3.619035 -2.370155
H 1.619535 -3.827652 -2.870365
H 3.164469 -1.147886 4.271318
H 3.391696 0.403133 4.246324
C 0.271288 -2.949849 -0.735011
C -0.544583 -4.016112 -1.034307
C -1.768790 -3.780285 -0.396973
C -1.662579 -2.575952 0.275368
C -2.646785 -1.941032 1.244406
N 0.367279 1.949113 -0.273615
C -2.083668 -2.081117 2.664362
C -3.980352 -2.695881 1.173950
C -2.887547 -0.460560 0.960732
C -4.082560 0.203587 0.822808
H -4.381819 2.267581 0.631943
H 2.203914 -0.201553 5.070939
H -0.256852 2.198042 2.320188
H -1.411877 3.053673 2.944242
C 1.930673 0.282196 -3.340293
H -0.212071 3.762163 2.225808
H -1.880869 4.970526 0.730126
H -3.026295 4.242888 1.513975
C 1.979188 -1.050128 -3.213619
H -2.947699 4.126990 -0.048640
H -1.099175 4.371888 -1.667028
H 0.629335 3.463851 -3.121171
H 2.799826 1.374662 0.442979
H 3.494450 2.759392 0.203228
H 4.181935 1.442185 -0.294794
H 4.228372 2.391542 -2.683233
H 3.505086 3.699679 -2.207988
H 2.866999 2.814822 -3.334515
H 1.978890 0.760906 -4.136508
C 1.775148 -1.355495 -1.800404
C 1.708418 -2.717045 -1.133542