20
H14 C6
C 1.641783 0.285478 -2.580077
C 0.846576 0.844514 -1.425930
C 0.109619 -0.046807 -0.474445
C -0.618531 0.599223 0.597688
H 1.855057 1.005665 -3.210206
C -1.356153 -0.274985 1.568278
H 1.114089 -0.403336 -3.036209
C -0.675809 -1.350275 2.328212
H 2.471521 -0.110982 -2.242800
H 1.470007 1.392142 -0.885907
H 0.180715 1.467726 -1.812016
H -0.531074 -0.593009 -0.995298
H 0.763596 -0.670019 -0.068545
H -1.273635 1.219582 0.188368
H 0.022931 1.151129 1.112835
H -1.777004 0.325409 2.233015
H -2.094735 -0.704246 1.064626
H -1.330485 -1.826598 2.880092
H 0.011546 -0.956668 2.905915
H -0.256753 -1.977766 1.702574