20
H14 C6
C -0.168323 1.611542 0.737446
C 0.069572 3.054881 0.090630
H 0.236098 -3.199588 -1.586554
H -0.989061 -2.255181 -1.560778
H 0.426414 -1.684973 -1.880316
H -0.334850 -2.700656 0.383753
H 1.068730 -2.130448 0.064179
H -1.179377 -0.758385 0.675562
H 0.129045 -0.811842 1.503591
H 1.187678 0.417669 0.005668
H -0.132639 0.488945 -0.822397
H -1.096114 1.522447 0.940708
H 0.319361 1.611542 1.563025
H 0.997362 3.161795 -0.112632
H -0.441903 3.090519 -0.705588
H -0.204008 3.749822 0.678473
C -0.061271 -2.326457 -1.351978
C 0.140940 -2.023534 -0.085755
C -0.227797 -0.794023 0.619536
C 0.247993 0.435488 0.061729