116
Ni2 H10 C66 N6 O2 F30
F 4.100279 -0.459223 -8.068976
F 0.293960 -7.372995 1.355883
F 1.257435 -5.407560 -2.326253
N -0.978778 3.763880 -0.163715
F 2.018699 -6.606778 -4.599151
F 0.900592 -5.894018 -6.977732
F -0.943093 -3.969566 -7.062703
F -1.728147 -2.722236 -4.836968
F -0.110461 -0.138481 -6.156625
N -0.217514 2.979844 -2.669134
O -1.502146 1.212199 0.405724
F 5.206491 0.770288 -5.928839
Ni -0.883620 -2.057588 1.066869
F 1.959225 4.387545 2.985555
F 2.411225 5.759608 5.270905
F 0.424803 6.098169 7.060389
H 1.150382 -3.470634 5.387817
F -2.013621 5.100305 6.555694
H -0.110461 -5.430724 4.727698
F -2.513200 3.781699 4.290805
H -2.406147 -6.624597 -0.003150
H -1.847094 -5.751466 -2.247219
H 1.043329 -1.635277 -3.942763
Ni -0.771809 2.112058 -1.078463
F 3.672068 1.500867 -3.896655
H -2.203937 6.739653 -0.014319
H -1.704357 5.759608 2.229966
F -3.036569 5.770299 -4.211007
H 1.019540 1.554324 4.024679
F -3.655096 8.218630 -5.004601
F -2.263410 10.374729 -4.008555
F -0.312672 9.964892 -2.186717
F 0.222592 7.512997 -1.284470
H 1.257435 3.389681 -5.413774
C 0.258276 -0.102843 2.989308
H 0.044171 5.421047 -4.728663
C 0.722171 -1.154164 3.841307
C 0.305855 -2.508408 3.695842
C 0.591329 -3.541910 4.620891
C -0.050987 -4.593231 4.265778
C -0.717093 -4.290308 2.951078
C -1.264252 -5.163439 2.081171
C -1.537831 -4.896154 0.767643
C -1.977936 -5.787104 -0.196130
C -1.740041 -5.305991 -1.416889
C -1.216673 -3.969566 -1.238729
C -0.610040 -3.221168 -2.240584
C -0.229409 -1.884743 -2.295371
C -0.836041 -0.851241 -1.452454
C 0.508066 -1.261078 -3.261515
C 0.305855 0.146623 -2.997222
C -1.335620 4.975572 -0.806419
C -1.799515 5.902160 0.172315
C -1.537831 5.349771 1.376906
C -1.026357 4.066803 1.210665
C -0.526777 3.318405 2.242311
C -0.217514 1.981980 2.305043
C -0.776567 0.948478 1.358575
C 0.496171 1.215763 3.304952
C 1.649961 -0.744327 4.959586
C 2.958384 -0.708689 4.804553
C 3.838595 -0.477042 5.837335
C 3.327121 -0.120662 7.013129
C 2.042488 -0.227576 7.244759
C 1.186066 -0.583956 6.285630
C -1.490252 -6.517683 2.577915
C -2.465621 -6.909701 3.505086
C -2.679726 -8.174850 3.963602
C -1.787620 -9.119257 3.613069
C -0.824146 -8.834153 2.703521
C -0.645725 -7.569004 2.174260
C 0.805434 1.144487 -3.813968
C -0.324567 -3.987385 -3.508294
C 0.484276 2.445274 -3.703081
C 0.627013 -5.003068 -3.443645
C 0.734066 3.478776 -4.650078
C 1.079014 -5.573276 -4.590183
C 0.091750 4.601373 -4.251707
C 0.519960 -5.288172 -5.798604
C -0.502988 4.351907 -2.976089
C -0.384040 -4.361584 -5.919034
C -1.169094 5.225038 -2.133350
C -0.824146 -3.720100 -4.745971
C 1.697540 0.734650 -4.985682
C -0.265093 4.066803 3.529314
C 1.257435 0.057528 -6.076017
C 0.948171 4.601373 3.856698
C 2.018699 -0.298852 -7.124503
C 1.174172 5.278495 5.005259
C 3.362805 -0.085024 -7.088115
C 0.222592 5.456685 5.885409
C 3.862384 0.413908 -5.994660
C -1.002567 4.939934 5.652175
C -1.276146 4.227174 4.438719
N -0.514882 -0.281033 1.868547
N -0.419725 -2.953883 2.639976
N -1.145304 -3.684462 0.156608
N -0.491093 0.360451 -1.901749
O -1.561620 -1.118526 -0.412691
C 3.053542 0.877202 -4.937486
C -1.454568 6.579282 -2.655166
C -2.394253 6.793110 -3.632203
F 3.493647 -0.904698 3.546418
C -2.679726 8.040440 -4.101040
F 5.135122 -0.245395 5.555705
C -2.001726 9.127399 -3.598655
F 4.159753 0.217899 8.039882
C -0.990672 8.931390 -2.683215
F 1.531014 -0.068987 8.482362
C -0.788462 7.684060 -2.270549
F -0.158040 -0.708689 6.543572
F 1.447751 -0.940336 -8.162248
F -3.286359 -5.892237 3.973565
F -3.643201 -8.406497 4.873150
F -1.930357 -10.366587 4.115947
F 0.067960 -9.814198 2.376534