12
H6 C6
C 0.414927 0.817973 -1.021102
C -0.414927 -0.817973 1.021102
C 1.353163 0.124968 -0.280312
C -1.353163 -0.124968 0.280312
C 0.917691 -0.699316 0.743910
H -0.693155 -1.372124 1.714685
C -0.917691 0.699316 -0.743910
H -2.260052 -0.209542 0.466777
H 1.537788 -1.176467 1.247023
H -1.537788 1.176467 -1.247023
H 2.260052 0.209542 -0.466777
H 0.693155 1.372124 -1.714685