184
Zn2 H96 C76 N8 O2
Zn -0.250615 3.214941 0.872223
C 2.173196 3.045569 -1.532541
C 1.352810 2.875611 -4.545740
H -3.311536 3.623817 -2.241370
H -3.322035 3.603305 3.942936
C 1.688763 1.394828 -4.735497
H -2.831603 -2.966450 -3.975076
C 1.835743 -3.218457 4.566355
H -2.840602 -2.960590 2.204643
C 2.365169 -1.804094 4.804636
C 5.660657 -3.778146 0.771135
H -2.194193 -3.382555 4.419473
C 6.108644 -2.410668 1.285756
H -0.916372 -3.214550 5.368319
H -2.296178 -1.293243 5.497235
C 5.664107 -3.714656 -2.462039
C 6.056152 -2.341318 -2.977885
H -0.863879 -0.892768 4.905108
C 1.846241 -3.491953 -6.297108
H -2.119203 -1.051005 3.924151
H -1.355810 3.528093 -5.374365
C 2.335173 -2.128382 -6.745345
C 1.333313 3.071942 6.321395
H -2.599136 3.830892 -4.413130
C 1.726258 1.616554 6.560873
H -2.965085 1.806048 -5.580148
C 5.149979 2.572812 2.500955
H -2.857100 1.501295 -4.011755
C 5.237266 1.148682 3.022816
H -1.613774 1.198497 -4.972991
C 5.156728 2.553277 -0.712729
H -5.418741 4.348580 -1.543516
H -6.419101 4.208902 -0.302620
C 5.237266 1.098866 -1.199798
C 0.500330 0.097677 1.308449
H -6.872037 2.522997 -1.889231
H -6.371107 1.847072 -0.529648
C 1.349811 -0.337962 0.141444
H -5.369248 1.985773 -1.768251
N 0.217470 -3.391345 1.171429
H -6.437098 4.114155 1.988123
N 2.276231 -3.499767 -0.857969
H -5.447237 4.298765 3.230583
N 0.241016 -3.286831 -2.912695
N 1.801398 3.099291 0.885367
H -6.800047 2.429227 3.609429
H -5.289759 1.932051 3.430019
O 0.529576 -0.992203 -0.864666
H -6.330613 1.776745 2.226559
H -2.626132 4.054572 6.061441
H -1.370808 3.929546 7.046984
H -2.924590 2.231919 7.522210
H -1.567280 1.570646 6.989730
H -2.828604 1.701533 6.013361
H -0.874378 -3.419672 -7.126417
H -2.153698 -3.609165 -6.183513
H -2.290179 -1.556971 -7.362080
H -2.224188 -1.280545 -5.786793
H -0.919371 -1.076401 -6.688432
H -5.066290 -3.192084 -3.268004
H -5.990161 -2.793562 -2.027136
H -6.011158 -1.066633 -3.618491
H -5.337752 -0.530386 -2.270436
H -4.419881 -0.930862 -3.518181
H -5.996160 -2.783795 0.240673
H -5.073789 -3.153014 1.496915
H -6.006659 -0.996305 1.797644
H -4.415381 -0.870302 1.684702
H -5.337752 -0.501083 0.428460
H -0.089987 0.695460 -1.735791
H -1.067850 -0.551875 -1.980787
H -2.050213 0.963095 -0.455562
H -1.798248 -0.450291 0.257478
C -0.869878 -3.203806 1.979662
C -0.454436 -3.133478 3.378029
C -0.908423 3.276087 -3.384638
C -1.321315 3.428463 -2.008669
C -2.644130 3.552512 -1.567234
C -3.088067 3.583769 -0.247203
C -4.484372 3.701958 0.168576
C -4.483922 3.674609 1.528114
C -3.096916 3.564234 1.956631
C -2.653278 3.535907 3.272897
C -1.337813 3.418695 3.722537
C -0.925370 3.401113 5.112191
Zn 0.250615 -3.214941 -0.872223
C -0.428940 -3.237016 -5.129580
H 3.311536 -3.623817 2.241370
C -0.844382 -3.179386 -3.741686
H 3.322035 -3.603305 -3.942936
H 2.831603 2.966450 3.975076
C -2.165697 -3.035801 -3.300711
H 2.840602 2.960590 -2.204643
C -2.607685 -2.984032 -1.980910
H 2.194193 3.382555 -4.419473
C -3.992891 -2.792585 -1.570179
H 0.916372 3.214550 -5.368319
C -3.995740 -2.786725 -0.209953
H 2.296178 1.293243 -5.497235
C -2.620133 -2.997707 0.208021
H 0.863879 0.892768 -4.905108
C -2.173196 -3.045569 1.532541
H 2.119203 1.051005 -3.924151
C -1.352810 -2.875611 4.545740
C -1.688763 -1.394828 4.735497
H 1.355810 -3.528093 5.374365
C -1.835743 3.218457 -4.566355
H 2.599136 -3.830892 4.413130
C -2.365169 1.804094 -4.804636
H 2.965085 -1.806048 5.580148
C -5.660657 3.778146 -0.771135
H 2.857100 -1.501295 4.011755
C -6.108644 2.410668 -1.285756
H 1.613774 -1.198497 4.972991
C -5.664107 3.714656 2.462039
H 5.418741 -4.348580 1.543516
C -6.056152 2.341318 2.977885
H 6.419101 -4.208902 0.302620
C -1.846241 3.491953 6.297108
H 6.872037 -2.522997 1.889231
C -2.335173 2.128382 6.745345
H 6.371107 -1.847072 0.529648
C -1.333313 -3.071942 -6.321395
H 5.369248 -1.985773 1.768251
H 6.437098 -4.114155 -1.988123
C -1.726258 -1.616554 -6.560873
C -5.149979 -2.572812 -2.500955
H 5.447237 -4.298765 -3.230583
C -5.237266 -1.148682 -3.022816
H 6.800047 -2.429227 -3.609429
C -5.156728 -2.553277 0.712729
H 5.289759 -1.932051 -3.430019
C -5.237266 -1.098866 1.199798
H 6.330613 -1.776745 -2.226559
C -0.500330 -0.097677 -1.308449
H 2.626132 -4.054572 -6.061441
C -1.349811 0.337962 -0.141444
H 1.370808 -3.929546 -7.046984
N -0.217470 3.391345 -1.171429
H 2.924590 -2.231919 -7.522210
N -2.276231 3.499767 0.857969
H 1.567280 -1.570646 -6.989730
N -0.241016 3.286831 2.912695
H 2.828604 -1.701533 -6.013361
H 0.874378 3.419672 7.126417
N -1.801398 -3.099291 -0.885367
O -0.529576 0.992203 0.864666
H 2.153698 3.609165 6.183513
H 2.290179 1.556971 7.362080
H 2.224188 1.280545 5.786793
H 0.919371 1.076401 6.688432
H 5.066290 3.192084 3.268004
H 5.990161 2.793562 2.027136
H 6.011158 1.066633 3.618491
H 5.337752 0.530386 2.270436
H 4.419881 0.930862 3.518181
H 5.996160 2.783794 -0.240673
H 5.073789 3.153014 -1.496915
H 6.006659 0.996305 -1.797644
H 4.415381 0.870302 -1.684702
H 5.337752 0.501083 -0.428460
H 0.089987 -0.695460 1.735791
H 1.067850 0.551875 1.980787
H 2.050213 -0.963095 0.455562
H 1.798248 0.450291 -0.257478
C 0.869878 3.203806 -1.979662
C 0.454436 3.133478 -3.378029
C 0.908423 -3.276087 3.384638
C 1.321315 -3.428463 2.008669
C 2.644130 -3.552512 1.567234
C 3.088067 -3.583769 0.247203
C 4.484372 -3.701958 -0.168576
C 4.483922 -3.674609 -1.528114
C 3.096916 -3.564234 -1.956631
C 2.653278 -3.535907 -3.272897
C 1.337813 -3.418695 -3.722537
C 0.925370 -3.401113 -5.112191
C 0.428940 3.237016 5.129580
C 0.844382 3.179386 3.741686
C 2.165697 3.035801 3.300711
C 2.607685 2.984032 1.980910
C 3.992891 2.792585 1.570179
C 3.995740 2.786725 0.209953
C 2.620133 2.997707 -0.208021