83
Cu1 H11 C46 N4 O1 F20
C 5.012625 6.117611 0.582653
Cu 0.226958 0.069447 -0.080566
H -2.102870 -3.353685 -3.020269
H -0.466423 -2.297008 -4.531434
H 3.635726 3.118748 -2.254097
H 2.518373 3.566067 2.886855
H 1.002616 2.338222 4.412539
H -4.459562 -2.970268 3.918290
H -3.126785 -3.864906 3.985891
H -4.991635 -5.213710 4.041827
H -5.488668 -4.595223 2.651828
H -4.158487 -5.485297 2.704150
H 2.986857 1.548567 -3.950986
F 5.839284 7.213087 0.676144
C -1.024450 -0.799858 1.125969
C -1.200943 -0.576199 2.521500
C -2.621966 -2.139533 2.092871
C -1.935462 -1.808608 0.800844
C -1.347587 -2.050526 -1.514700
C -1.489041 -2.664448 -2.792864
C -0.596197 -2.093888 -3.612185
C 0.121452 -1.128501 -2.852013
C 1.451633 0.971160 -1.285181
C 1.690417 0.669904 -2.630903
C 3.011514 2.406689 -2.167821
C 2.299056 2.071200 -1.003022
C 1.778663 2.259104 1.343482
F 3.535800 7.350021 -0.773279
C 1.943476 2.844879 2.655231
C 1.120710 2.169336 3.485016
C 0.453673 1.153739 2.720380
C -2.144398 -2.420248 -0.419694
C 1.083076 -0.320588 -3.418931
C 2.450891 2.705663 0.235742
C -0.515737 0.288770 3.282350
C 3.073805 5.097450 -0.252559
C 5.370801 4.926282 1.203814
C 4.549333 3.853629 1.071032
C 3.387858 3.887863 0.357597
C -1.393008 1.464124 5.341574
C -1.655151 1.539438 6.696301
C -1.243768 0.507865 7.508860
C -0.589708 -0.587610 6.973912
C -0.330161 -0.642384 5.600499
C -0.732459 0.384624 4.760493
C -4.379102 -3.104920 -1.267474
C -5.391338 -4.020099 -1.513825
C -5.226525 -5.318693 -1.127137
C -4.045584 -5.711239 -0.502695
C -3.052814 -4.777802 -0.276381
C -3.207245 -3.438128 -0.659879
C -3.919703 -3.643529 3.435129
C -4.702239 -4.828012 3.189096
F 6.521894 4.864662 1.886801
C 1.861718 -1.402369 -5.518688
C 2.140732 -1.395523 -6.890803
C 1.865611 -0.254403 -7.655096
C 1.304989 0.875306 -7.047138
C 1.040250 0.873024 -5.671913
F -1.496827 0.560357 8.831029
C 1.338730 -0.256685 -4.904701
F -0.217258 -1.584949 7.770247
N -2.219667 -1.420627 3.077684
N -0.345734 -1.110243 -1.544116
N 2.662422 1.555414 -3.133300
N 0.852078 1.206231 1.398586
O -3.503129 -3.120896 2.126585
F 1.968133 5.202433 -1.001230
F 4.939952 2.707488 1.674480
F -1.788818 2.479264 4.569577
F -2.292340 2.584476 7.215565
F 0.275883 -1.719373 5.129586
F -4.593229 -1.845352 -1.685502
F -6.512583 -3.650376 -2.146326
F -6.197233 -6.206485 -1.348801
F -3.875580 -6.966471 -0.116115
F -1.936760 -5.172630 0.344303
F 2.166687 -2.463611 -4.804422
F 2.624788 -2.470458 -7.468203
F 2.148518 -0.252120 -8.937001
F 1.015593 1.918290 -7.792393
F 0.475734 1.934265 -5.143944
C 3.866723 6.190643 -0.146439