18
H12 C6
C 0.003061 -1.127159 0.855140
H -0.279335 -1.001622 1.775227
C 1.189962 -0.349898 0.659149
H -0.238793 2.008595 -0.873824
H 0.247711 -2.062009 0.760573
C 1.131246 0.918827 -0.006589
H -1.600443 0.237722 -1.536793
H 1.816265 -0.902795 0.165709
C -1.193626 0.392640 -0.670865
H 0.277069 0.844039 -1.764684
H -1.791969 0.972247 -0.170392
H 1.580003 -0.194980 1.533967
C -0.019307 1.065732 -0.867087
C -1.112542 -0.897453 0.033617
H 1.936493 1.031009 -0.538504
H -1.908003 -0.985596 0.581621
H -1.141900 -1.599926 -0.632154
H 1.117266 1.621300 0.659148