99
Fe1 H50 C40 N7 O1
Fe 0.331196 0.031138 0.131864
C -1.743181 3.716684 3.844172
C -3.051955 4.180426 3.207935
H -4.454253 -0.316368 -1.425531
H -3.235219 -1.851234 -2.897350
H -0.892531 -1.760895 -2.139161
H -1.263300 -1.512612 3.891496
H 1.517654 -4.021036 -1.030682
C 1.301186 4.251192 -3.515004
C 0.203614 4.288834 -4.575948
C 0.066695 5.598755 -0.847736
C -1.386616 6.005282 -1.067854
H 0.200090 -6.091164 1.711862
H 0.459276 -5.748476 0.171473
H 2.408080 -6.694932 1.038252
H 2.721289 -5.156151 0.728038
H 2.442922 -5.630433 2.232133
H 2.173369 -4.302444 -3.250438
H 3.001137 -3.517996 -4.371285
H 4.417441 -4.882121 -3.021712
H 4.848004 -3.343340 -2.939590
H 4.017946 -4.007335 -1.742374
H 3.196908 0.228077 -4.845386
H 3.752649 -1.268545 -4.969326
H 2.392439 -0.834916 -6.829109
H 1.650047 -1.929529 -5.926245
H 1.177587 -0.401287 -5.881260
N -0.541620 0.845547 1.740964
N 0.372686 1.839582 -0.774933
O 2.766080 0.657792 1.314009
C -0.690862 -4.218127 3.723703
C -2.156360 -4.615620 3.762102
H -1.907212 1.534987 5.814161
C -2.725103 0.125693 -0.512907
C -2.888327 -1.319738 -2.189908
H -4.020441 1.419052 4.768269
C -1.608402 -1.254994 -1.774278
C -0.907337 -1.177001 3.077139
C 1.265602 -3.140829 -0.777173
C -0.970446 0.190587 2.878449
C -0.373109 -2.101776 2.192637
C 0.600952 -2.987102 0.432089
C 1.587894 -2.107949 -1.643023
C 1.672425 -0.129365 -2.609495
C -0.263740 -3.527482 2.451990
C 0.319731 -4.079456 1.349523
C 2.284377 -2.284864 -2.897702
C 2.343001 -1.057151 -3.494115
H -4.186542 1.289565 0.290552
H -3.095663 0.818295 1.362254
C 0.710579 -5.506066 1.098038
H -2.743294 1.980662 0.321029
C 2.204608 -5.770459 1.291407
C 2.843550 -3.590268 -3.397238
C 4.148349 -3.992278 -2.713864
H 1.784681 1.541914 -3.708122
C 2.935539 -0.726509 -4.830826
H -0.602554 4.109359 1.384729
C 1.949853 -0.997527 -5.969602
H -1.862095 3.644413 4.824174
H -1.038117 4.389713 3.670912
H -3.311625 5.044673 3.588142
H -2.931146 4.272271 2.239054
H -3.754476 3.520949 3.388447
H 1.580141 5.178677 -3.304688
H 2.087489 3.772393 -3.878833
H 0.548509 4.714934 -5.388508
H -0.081970 3.373394 -4.783700
H -0.560752 4.799251 -4.238585
H 0.318371 5.800513 0.088276
H 0.644169 6.143803 -1.438757
H -1.499006 6.950835 -0.836157
H -1.626586 5.868268 -2.008688
H -1.967929 5.458729 -0.498888
N 0.164767 -1.793568 0.964610
N 1.228784 -0.782971 -1.479797
N 1.788306 0.352896 0.832528
N -1.490758 -0.342868 -0.736587
N -3.587530 -0.463019 -1.385343
C -2.089870 0.803238 5.172412
C -3.592790 0.592446 5.072222
H -1.669211 -0.020356 5.524344
H -3.947625 0.345519 5.952551
C -3.230344 1.140505 0.447047
H -3.779573 -0.125752 4.433500
H -0.139314 -5.031181 3.842511
C 1.486212 1.217294 -2.866596
H -0.506114 -3.617370 4.487729
C -0.441562 3.220269 1.091699
H -2.341254 -5.103453 4.591887
C -0.715273 2.194465 1.987499
H -2.714938 -3.811600 3.724381
H -2.358531 -5.190781 2.994055
C 0.904802 2.134389 -2.007636
C 0.049849 3.052991 -0.196676
C -1.302933 2.388695 3.299904
C -1.469192 1.145022 3.846331
C 0.852831 3.571990 -2.246859
C 0.331216 4.143989 -1.117415