167
Co1 H78 C68 N6 O14
Co -0.154038 0.219321 -0.418178
H -0.337143 -5.466813 4.427405
H -2.321954 -0.779967 -0.527166
C -2.667037 -0.081686 1.286170
H -1.541411 -1.496327 0.496946
C -3.447581 1.043699 0.631615
H 1.187558 1.766838 -1.648364
C -4.397144 3.188259 0.951063
C -3.637728 -1.155096 1.827978
H 1.841337 1.529558 -0.351783
C -2.883007 -2.366354 2.338468
H 2.049091 -0.657938 4.076639
C -2.552009 -3.417166 1.470948
H -0.522596 3.866202 3.080714
C -1.774987 -4.472497 1.903142
H -1.012049 5.014185 0.963590
C -1.336004 -4.524473 3.193460
H -2.228054 3.258313 -3.887630
C -1.685782 -3.548235 4.057848
H -2.818451 1.012062 -4.683117
C -2.461631 -2.474825 3.678895
H -0.790211 -3.751618 -3.455436
H 1.020886 -4.477017 -1.952153
H 1.477474 2.266256 4.248890
H 0.484482 -1.134758 5.736514
C 2.423517 6.329395 0.857108
H -0.610627 -0.651158 4.674820
H -0.882937 -0.472633 6.240740
H 1.992751 0.307001 6.723044
H 1.049056 1.400749 7.412049
H -0.202162 2.978097 5.705196
H -4.422967 3.775810 5.467176
C 2.300273 -3.973079 0.409254
H -4.384233 2.178124 5.398276
C 3.731074 -4.192281 0.825789
H -4.127182 3.041371 4.076639
H -2.245661 5.052602 -1.701606
C 4.744021 -3.069155 0.847712
N 0.827217 -0.529806 1.110473
C 3.989299 -5.252131 1.853033
H 0.115924 4.345282 -4.582899
N -0.421653 1.885930 0.580253
C 3.251011 -4.705257 -0.527166
H 0.721579 3.787109 -3.211153
N -1.129424 0.974775 -1.924280
C 3.754549 -4.097368 -1.764243
H 1.276763 5.152034 -3.834389
H 4.913041 0.858395 4.286472
C 4.551526 -4.558370 -3.978453
H -1.540237 5.904551 -4.692513
N 0.090102 -1.466950 -1.419740
H -0.945146 7.167784 -3.909553
N -1.787898 -0.658390 0.211322
N 1.476301 1.102454 -1.079622
H -2.275004 6.453684 -3.380272
H -0.658751 6.756499 -1.341444
H 2.707564 -2.601374 2.704893
H -1.966308 -1.753946 -5.143498
H -4.415924 -0.892958 -2.509620
H -5.696486 -1.103120 -3.446041
H -4.758659 0.178192 -3.649610
C 2.597232 0.453889 -1.762363
H -3.878347 -1.998005 -6.427552
C 2.219284 0.270844 -3.248735
H -4.408882 -0.515570 -6.133159
C 2.554977 -1.089561 -5.137234
H -5.364314 -1.774284 -5.879480
C 3.896573 1.274200 -1.610782
H -3.378329 -3.584392 -4.723831
C 4.198227 1.441426 -0.138818
H -4.529778 -6.244188 -1.573200
C 3.697036 2.521615 0.584637
O -2.367731 1.077596 4.247011
H -5.094352 -4.836326 -1.062710
C 3.819106 2.589409 1.972043
O -2.555531 3.025553 5.338771
H -3.563782 -5.227273 -0.802768
H 1.674664 -4.601306 0.872767
O 1.695792 4.600640 -1.007590
C 4.420066 1.556676 2.657916
C 4.931821 0.485526 1.959515
O 1.292022 6.550856 0.034686
H 2.110126 1.845932 6.300245
C 4.817967 0.426771 0.572110
O -3.556739 -2.772442 -1.609530
O -3.948772 -4.702998 -2.670597
O -3.849003 1.036016 -0.498979
O -3.633033 2.050445 1.509157
O -0.535507 -5.575284 3.617824
O 1.479822 0.980425 -3.820296
H -2.105984 0.279883 2.028416
H -4.498087 3.882021 1.636936
H -5.282152 2.878665 0.666065
H -3.917081 3.556608 0.180630
H 2.529154 7.079652 1.477212
H -4.176479 -0.768668 2.560828
H 3.224014 6.252561 0.296508
H -4.256294 -1.433053 1.104523
H 2.299099 5.500045 1.364466
H -2.865401 -3.401347 0.572110
H -1.543758 -5.165505 1.298697
H -1.385302 -3.602470 4.956686
H -2.711639 -1.817220 4.314659
H 1.612456 -1.349440 -5.209267
H 4.943558 -2.827355 1.777868
H 4.377811 -2.289520 0.377936
H 5.566819 -3.360670 0.402991
O 3.941176 -2.935826 -1.976268
H 4.292127 -4.834067 2.686102
O 3.991647 -5.041969 -2.678113
H 4.681812 -5.864540 1.524189
H 3.164153 -5.753809 2.019020
C 1.576069 -1.697450 1.138973
H 3.111334 -5.692794 -0.571012
H 4.691202 -5.322186 -4.576635
C 1.796734 -0.822904 3.174669
H 5.407189 -4.108668 -3.818730
C 0.958677 0.006446 2.369786
O 2.864847 -0.755110 -3.745131
H 3.923569 -3.930143 -4.391856
C 0.396451 1.213185 2.792271
O 4.508097 1.550575 4.034986
C -0.212726 2.112589 1.924439
C -0.523769 3.468475 2.216326
C -0.818381 4.089923 1.070073
C -0.785516 3.109166 0.045961
C -1.071911 3.357745 -1.316389
C -1.332483 2.309193 -2.165118
C -2.021474 2.440262 -3.449172
C -2.311391 1.224484 -3.906421
C -1.690477 0.275364 -2.971567
C -1.597751 -1.087302 -3.152274
H 2.740429 -0.447775 -1.357103
C -0.691616 -1.882755 -2.487698
H 3.121898 -1.835299 -5.428495
C -0.381746 -3.222822 -2.778959
H 2.723997 -0.309927 -5.707229
C 0.590119 -3.629588 -1.942757
C 0.855387 -2.553918 -1.040788
H 4.645426 0.804159 -2.055504
C 1.632409 -2.642051 0.083543
H 3.787414 2.160045 -2.036713
C 0.665239 1.683225 4.205044
H 3.262748 3.228936 0.121125
C 0.452791 0.919410 5.498494
H 3.489282 3.346446 2.441819
C -0.197467 -0.456815 5.542340
H 5.364934 -0.217275 2.429291
C 1.492733 1.138611 6.578979
H 5.171266 -0.321226 0.105466
C -0.422827 2.153266 5.185310
C -1.851281 1.992819 4.825149
C -3.991027 3.002955 5.044378
C -1.296097 4.749788 -1.779902
C -0.553113 5.366716 -2.938683
C 2.161771 -1.873715 2.429291
C 0.479787 4.596121 -3.709115
C -1.406429 6.309057 -3.809334
C -0.266718 5.861614 -1.554409
C 1.013843 5.558800 -0.849745
C -2.442851 -1.701970 -4.266583
C -3.924123 -1.552822 -4.401252
C -4.773918 -0.773188 -3.414722
C -4.440573 -1.451131 -5.838766
C -3.366592 -2.890630 -4.003508
C -3.610732 -3.408126 -2.634894
C -4.312634 -5.299587 -1.429136