163
Co1 H82 C62 N6 O12
H 2.457655 4.803761 1.856085
H 4.442083 0.729858 6.673078
H 4.805931 1.012120 5.139228
H 0.591534 5.416170 4.940915
H -1.968802 0.674413 -1.201252
C -0.364072 -4.193353 0.569969
H -2.020143 -0.793603 -1.100123
H 1.015652 6.155848 3.585684
H 3.732242 -0.115669 5.513532
C -0.570551 -2.827405 0.970062
H 3.044724 -0.643651 -0.997612
H 2.118360 5.838303 4.701713
C -1.122798 -2.412832 2.183830
C -0.960293 -1.119969 2.656499
C -1.098244 -0.712957 4.016279
C -0.629481 0.543363 4.119963
H 4.341633 0.511860 1.322568
C -0.262953 0.957936 2.785100
H 6.428743 0.295123 0.186579
H -3.020170 -5.356425 0.992974
H 5.488985 1.361168 -0.550304
H -3.256783 -3.775000 1.069824
H 5.656401 -0.111889 -1.154290
H -4.308150 -4.774259 1.742558
H 4.832718 -2.048663 0.149157
H -0.194202 4.832743 -1.233623
C -1.584864 -3.485177 3.139426
H 3.767957 -1.843266 1.327566
C -2.580426 -4.568863 2.847016
H 5.828280 -2.606887 2.197608
C -3.359464 -4.623047 1.548382
H 5.495682 -1.155252 2.782004
C -2.238899 -5.932291 3.405652
H 6.564907 -1.316545 1.602863
C -2.924185 -3.497778 3.875935
C -3.993410 -2.516160 3.599896
C -5.828280 -1.390891 4.549024
H 0.683054 -4.962014 -1.025588
H 1.455396 -1.237158 -4.723202
H -2.799182 3.282820 -2.218241
H 0.555818 1.057484 -4.916527
H 0.839308 -3.811543 -3.719642
H 1.196460 3.224856 5.528831
C 0.149334 2.254579 2.433427
C 0.140182 2.695614 1.091556
H -1.196460 3.224856 -5.528831
H -3.526880 4.473615 -3.000320
C 0.100449 4.070383 0.675514
H 1.725492 -5.826443 -4.232678
H -2.457655 4.803761 -1.856085
H -4.442083 0.729858 -6.673078
H 1.703170 -6.428770 -2.749280
H -0.591534 5.416170 -4.940915
H -4.805931 1.012120 -5.139228
C -3.457681 2.577164 3.012292
H 3.064814 -6.424990 -3.593827
H -1.015652 6.155848 -3.585684
H -3.732242 -0.115669 -5.513532
H -3.044724 -0.643651 0.997612
H 2.875077 -3.802722 -4.826954
H -2.118360 5.838303 -4.701713
H 6.294810 -1.283782 -5.404657
H 6.446600 -1.765140 -3.885940
H 5.509075 -0.517641 -4.240667
H -4.341633 0.511860 -1.322568
H 0.448673 3.634388 -3.906742
C 0.395100 3.247538 3.531439
H -6.428743 0.295123 -0.186579
N -0.473450 -0.058965 1.908610
H -5.488985 1.361168 0.550304
H -5.656401 -0.111889 1.154290
H -4.832718 -2.048663 -0.149157
C 1.464325 2.990477 4.594626
H -3.767957 -1.843266 -1.327566
C 2.464351 1.908051 4.483521
H -5.828280 -2.606887 -2.197608
C 1.569238 4.183792 3.627573
H -5.495682 -1.155252 -2.782004
O -4.244086 -2.005819 2.544564
C 4.087162 0.763880 5.760517
C 3.090930 0.079646 -0.308112
H -6.564907 -1.316545 -1.602863
C 2.689804 4.186312 2.580623
O -4.707715 -2.281781 4.720250
C 3.075975 1.417872 -0.984315
C 1.299142 5.513197 4.270493
C 4.408599 -0.062745 0.507252
O -3.342723 1.334706 2.290113
C 5.602828 0.413573 -0.327661
H 3.649651 2.391930 -3.954933
C 4.613962 -1.499259 0.943916
H 4.185379 3.111447 -2.630541
C 5.723367 -1.658032 1.973502
H 2.616141 3.074904 -2.942514
N -0.000000 -1.996999 0.000000
N -0.000000 1.889150 0.000000
C -0.149334 2.254579 -2.433427
N 1.898711 -0.024942 0.608196
C -0.140182 2.695614 -1.091556
C -0.100449 4.070383 -0.675514
O 2.757439 1.281782 3.502633
C 0.364072 -4.193353 -0.569969
O 3.040259 1.737938 5.692035
C 0.570551 -2.827405 -0.970062
C 1.122798 -2.412832 -2.183830
C -0.395100 3.247538 -3.531439
O 2.935123 2.466276 -0.388305
C 0.960293 -1.119969 -2.656499
C 1.098244 -0.712957 -4.016279
C 0.629481 0.543363 -4.119963
C 0.262953 0.957936 -2.785100
C -1.464325 2.990477 -4.594626
C -2.464351 1.908051 -4.483521
C -1.569238 4.183792 -3.627573
C -4.087162 0.763880 -5.760517
C -3.090930 0.079646 0.308112
C -2.689804 4.186312 -2.580623
C -3.075975 1.417872 0.984315
C 1.584864 -3.485177 -3.139426
C -1.299142 5.513197 -4.270493
C 2.580426 -4.568863 -2.847016
C -4.408599 -0.062745 -0.507252
C 3.359464 -4.623047 -1.548382
C -5.602828 0.413573 0.327661
C 2.238899 -5.932291 -3.405652
C -4.613962 -1.499259 -0.943916
C 2.924185 -3.497778 -3.875935
C -5.723367 -1.658032 -1.973502
C 3.993410 -2.516160 -3.599896
C 5.828280 -1.390891 -4.549024
N -1.898711 -0.024942 -0.608196
O -2.757439 1.281782 -3.502633
C 3.457681 2.577164 -3.012292
O -3.040259 1.737938 -5.692035
O -2.935123 2.466276 0.388305
H -0.683054 -4.962014 1.025588
N 0.473450 -0.058965 -1.908610
H -1.455396 -1.237158 4.723202
H -0.555818 1.057484 4.916527
H -0.839308 -3.811543 3.719642
O 4.244086 -2.005819 -2.544564
O 4.707715 -2.281781 -4.720250
H -1.725492 -5.826443 4.232678
H -1.703170 -6.428770 2.749280
H -3.064814 -6.424990 3.593827
O 3.342723 1.334706 -2.290113
H -2.875077 -3.802722 4.826954
H -6.294810 -1.283782 5.404657
Co -0.000000 -0.049010 0.000000
H 1.968802 0.674413 1.201252
H -6.446600 -1.765140 3.885940
H 2.020143 -0.793603 1.100123
H -5.509075 -0.517641 4.240667
H -0.448673 3.634388 3.906742
H 3.020170 -5.356425 -0.992974
H 3.256783 -3.775000 -1.069824
H 4.308150 -4.774259 -1.742558
H 0.194202 4.832743 1.233623
H -3.649651 2.391930 3.954933
H -4.185379 3.111447 2.630541
H -2.616141 3.074904 2.942514
H 2.799182 3.282820 2.218241
H 3.526880 4.473615 3.000320