152
Fe1 H72 C71 N4 O4
H -0.421239 -2.077860 2.547566
Fe -0.134107 1.553911 0.552327
H 0.466516 1.580199 2.692254
H -0.199560 0.036303 2.916715
H -1.201848 -2.904053 -1.881820
H -3.387391 -2.169659 -0.991155
H 3.702756 -0.812144 -2.015115
H 4.613919 1.407727 -1.453169
H -6.634055 -2.133496 2.311296
H -7.615487 -0.321157 -1.141170
H -3.512850 -0.745381 2.733766
H -3.470661 -2.219731 2.115975
H -8.831941 -2.613355 1.193244
H -9.255023 -1.720400 -0.065450
H -9.264771 -1.087541 1.403317
H -4.587501 0.439663 -2.275797
H -5.051664 1.747106 -1.479095
H -6.102264 0.945950 -2.383208
H -5.189762 2.121257 1.449613
H -4.261916 4.357819 1.947137
H -3.026970 7.360766 4.751298
H -2.848584 8.985333 1.087532
H -3.878407 10.242704 2.834248
H -2.758572 10.182895 3.974991
H -4.201352 9.538910 4.233474
H -2.002787 5.252166 5.184522
H -1.486321 4.327220 3.984420
H -3.047989 4.392592 4.328938
H -2.161296 6.057495 -0.679212
H -1.014874 7.163258 -0.514823
H -2.518100 7.609736 -0.837993
H 0.544234 6.577691 1.591559
H 2.757908 5.818261 0.754395
H 5.948739 5.661090 -2.341425
H 2.678551 5.324493 -2.126028
H 7.059789 4.015659 1.165419
H 3.811000 5.339793 -3.255220
H 3.099631 3.964196 -2.854086
H 8.589994 5.446892 0.086976
H 8.069091 6.421910 -1.070190
H 8.618325 4.964250 -1.439983
H 3.938984 3.108794 2.263383
H 5.498717 2.979441 2.595096
H 1.962105 -1.269749 -3.873697
H 4.775844 1.865332 1.702646
H 4.407967 -3.705209 -6.861945
H 3.935484 -4.766464 -5.761923
H 4.736107 -3.456239 -5.315868
H 2.171320 -1.095887 -6.124083
H 3.424761 -1.531238 -7.019995
H 3.625661 -1.204377 -5.465911
H 0.904272 -3.139114 -6.716120
H 1.572833 -4.582865 -6.544555
H 2.100523 -3.585592 -7.679071
H 2.214623 -5.257450 -4.391052
H 3.097779 -6.977989 -2.045347
H 2.409617 -7.124034 -3.482894
H 1.964646 -8.083752 -2.280268
H -0.838681 -5.879181 -2.518958
H -0.438664 -7.425858 -2.432959
C 0.755357 -7.500967 1.467146
H -0.050120 -6.570457 -3.727875
C 0.613532 -8.889082 2.098037
H 1.009703 -8.192242 -0.410262
C 1.749126 -9.807073 1.652141
C -0.734700 -9.448222 1.636738
C 0.634208 -8.832055 3.632549
C 0.656299 -6.311750 2.176755
O 0.896962 -3.837344 3.545842
C 2.681460 1.854205 -0.645501
C -0.398215 -1.123705 -1.043022
C 3.729238 1.104512 -1.284676
C -1.367370 -2.107069 -1.393344
C 3.230062 -0.100005 -1.600824
C 0.964078 -1.159868 -1.410233
C 1.847597 -0.119477 -1.195287
C -2.560834 -1.707881 -0.908774
C -2.345347 -0.457465 -0.248047
C -3.370349 0.296401 0.322939
C -4.745991 -0.301685 0.393574
C -5.094389 -1.130659 1.479083
C -6.397834 -1.588264 1.570249
C -7.373100 -1.283658 0.631378
C -6.977420 -0.507538 -0.461000
C -5.698345 0.000140 -0.594875
C -4.051915 -1.528456 2.495272
C -8.805994 -1.713445 0.805770
C -5.326892 0.859714 -1.788405
C -3.213783 1.596889 0.806378
C -4.289413 2.398046 1.324207
C -3.781713 3.615081 1.601730
C -2.382851 3.584481 1.276670
C -1.511837 4.652690 1.430050
C -2.043501 5.946224 1.975684
C -2.377906 6.057495 3.336167
C -2.833285 7.282875 3.825087
C -3.016765 8.385857 3.012048
C -2.723699 8.241203 1.665848
C -2.254568 7.046423 1.122307
C -3.506635 9.703036 3.562825
C -2.214230 4.907224 4.292014
C -1.961080 6.961578 -0.357185
C -0.159166 4.619308 1.082156
C 0.750529 5.720898 1.236761
C 1.959708 5.306411 0.781633
C 1.801711 3.943332 0.349883
C 2.823320 3.172775 -0.195697
C 4.172526 3.804243 -0.334286
C 4.478530 4.585927 -1.461213
C 5.745468 5.129767 -1.580186
C 6.728127 4.922524 -0.620849
C 6.399948 4.160312 0.498484
C 5.138782 3.606735 0.668903
C 3.424573 4.823770 -2.516466
C 8.125392 5.488619 -0.774078
C 1.407735 -2.329612 -2.225886
C 4.808675 2.820878 1.916421
C 1.878926 -2.151578 -3.530875
C 2.230447 -3.230913 -4.348373
C 2.752272 -3.059833 -5.785815
C 4.077100 -3.815090 -5.945536
C 3.018202 -1.589655 -6.129647
C 1.741804 -3.644010 -6.768449
C 2.022469 -4.511929 -3.835399
C 1.547694 -4.751164 -2.548477
C 1.182520 -6.161533 -2.100466
C 2.261871 -7.179669 -2.514625
C -0.158810 -6.544030 -2.755465
C 1.012694 -6.175442 -0.585781
C 0.936059 -7.391086 0.095337
C 0.686381 -5.066897 1.543397
C 0.452328 -3.865162 2.396935
C 0.873305 -5.016825 0.153178
C 1.294607 -3.649573 -1.740231
N -1.017082 -0.100005 -0.331165
N -2.050514 2.331283 0.783120
N 1.533354 1.091994 -0.595793
N 0.495615 3.526063 0.547064
O -0.288537 -2.936043 1.884184
O 0.907304 -3.757507 -0.418413
O 0.337983 1.046094 2.287529
H -4.493440 -1.877571 3.297232
H 1.712081 -9.923909 0.680136
H 1.653531 -10.679166 2.089966
H 2.608299 -9.409277 1.902752
H -1.452203 -8.843182 1.917231
H -0.875525 -10.331442 2.038419
H -0.738700 -9.528894 0.659387
H -0.124136 -8.299341 3.950631
H 1.470517 -8.420349 3.933101
H 0.569355 -9.740310 3.994196
H 0.566616 -6.346522 3.120973