139
Fe1 H66 C64 N7 O1
C -2.846651 1.092416 7.033340
C 1.288940 2.212062 0.782452
H -5.070566 2.709441 -0.405474
C 2.354000 4.466603 1.077783
H -5.017498 3.387618 1.041511
C 1.904774 -0.942842 -4.387547
H -4.490521 4.873219 -0.680393
C 2.724241 -2.039253 -4.544485
H -1.991395 4.517430 3.922067
H -3.194678 3.993186 -1.008328
C 3.310456 -2.329693 -5.765868
H -1.758143 4.379471 2.345138
C 3.074736 -1.505570 -6.840718
H -3.315623 4.746151 0.398802
H -3.297111 2.571119 3.937944
H -1.106519 3.314282 3.347210
C 2.275015 -0.412789 -6.715452
H -3.911711 3.592016 2.866328
H -0.213004 1.473982 5.154476
C 1.687566 -0.111458 -5.490863
N -1.856874 0.419322 0.699374
N 0.558331 -0.465794 1.879901
N 1.694971 -0.670191 -0.670985
N -0.783175 -0.128521 -1.858840
N -0.619035 -1.858454 0.078602
H -0.876970 -1.312790 5.643171
N 0.432449 1.617024 -0.046215
N 1.487636 3.481285 0.405077
H -4.534950 0.203670 6.382456
H -1.909942 -3.440626 5.596594
H -3.772254 -0.237073 4.210831
H -1.105285 -3.800046 4.263231
H -2.211071 -2.641916 4.241836
O -0.990510 -2.921465 0.173302
H 1.924520 -3.339335 4.859925
H 3.179637 -2.886249 3.973576
H 2.513204 -5.107026 3.428948
H 2.378683 -4.148574 2.151494
H 1.075434 -4.558820 2.986302
H 4.221249 -0.261034 3.507274
H 6.387158 -3.964870 1.659263
H 4.406369 -3.157810 0.686331
H 5.930528 0.342355 -0.894632
H 5.628164 -0.371764 0.505890
H 6.057644 1.917992 0.847656
H 4.551997 1.587616 1.274941
H 4.848190 2.302825 -0.126368
H 4.143498 0.072972 -3.917833
H 5.215963 0.640782 -2.872444
H -0.461066 2.399033 -1.751189
H 4.287892 2.437153 -4.068685
H 3.842369 2.564221 -2.535930
H -1.002851 1.893668 7.319555
H 2.813099 2.001493 -3.626254
H -1.649539 -1.806538 -5.786813
H -0.063674 -1.724852 -5.578903
H -0.768366 -3.951800 -5.607984
H -1.733460 -3.672978 -4.362348
H 0.214007 -2.479996 5.736664
H -0.145127 -3.596738 -4.177664
H -3.167527 1.273578 7.907429
H -3.521724 -1.379954 -5.003003
H -4.249865 -0.282454 -4.093990
H -5.175467 -2.445869 -3.774874
H -4.592955 -1.854098 -2.405519
H -3.761147 -2.950509 -3.220876
H -3.250214 2.355104 -3.446599
H 6.220550 -1.042681 4.426517
H -5.112526 3.090643 -4.645995
H 7.290546 -2.884433 3.513750
H -7.236475 2.320977 -4.057409
H -7.493176 0.867688 -2.276645
H -5.640737 0.145945 -1.051605
H 1.699908 1.798185 1.532425
H 1.825790 4.978503 1.725323
H 2.734114 5.076527 0.412751
H 3.078438 3.998268 1.544614
H 2.889615 -2.609242 -3.801179
H 3.869520 -3.092098 -5.860178
H 3.475830 -1.701617 -7.679351
H 2.117046 0.146308 -7.466781
H 1.138375 0.658208 -5.402579
C 0.707662 3.710733 -0.710616
C 0.104169 2.551877 -1.003957
C -1.389136 0.302056 3.092000
C 2.830377 -1.159946 1.414041
C 1.263023 -0.644415 -3.065351
C -2.003736 0.903630 1.986754
C -0.282116 -0.542761 2.968662
C -3.030538 0.692335 -1.415054
C 1.659181 -1.244900 2.176294
C -2.798520 1.063009 -0.082565
C 2.827908 -0.647682 0.104669
C 2.098534 -0.412789 -1.966395
C -0.132785 -0.685440 -2.948586
C -2.120979 -0.055185 -2.175932
C 0.244861 -1.499398 3.928770
C 1.434568 -1.950306 3.426711
C -3.484700 2.055951 0.725867
C 3.952207 -0.182252 -0.673096
C -2.963894 1.980074 1.985057
C 3.498045 -0.036306 -1.969466
C -1.121329 -1.107667 -3.928900
C -2.340655 -0.708675 -3.457803
C -1.886493 3.884271 3.181571
C -1.914878 0.583420 4.464587
C -4.464604 3.104802 0.269605
C -1.094178 1.214764 5.397426
C -3.812980 4.276002 -0.301938
C -3.130503 3.020938 3.072200
C -0.454895 -2.055590 5.142396
C -1.513784 -3.074309 4.779190
C -3.657479 0.463251 6.128103
C 2.219479 -3.123320 3.939651
C -3.205785 0.200039 4.835751
C 2.029422 -4.343168 3.047465
C 4.116347 -1.643165 2.005753
C 4.660601 -1.010369 3.122765
C 5.845372 -1.479067 3.670460
C 6.482187 -2.568580 3.127575
C 5.950274 -3.206096 2.027552
C 4.765503 -2.731226 1.456036
C 5.283840 0.287534 -0.146742
C 5.176470 1.644252 0.521695
C 4.252102 0.613916 -3.095731
C 3.754745 2.030537 -3.355074
C -0.917696 -1.972089 -5.141637
C -0.888077 -3.421747 -4.792588
C -3.666118 -1.081527 -4.070248
C -4.359703 -2.179390 -3.300035
C -4.252333 1.181364 -2.130018
C -4.115344 2.051594 -3.200481
Fe -0.125380 -0.285286 0.008177
C -5.219896 2.487617 -3.920107
C -1.563149 1.465995 6.682810
C -6.475013 2.034531 -3.567638
H 0.616336 4.531952 -1.179638
C -6.624343 1.173013 -2.512762
C -5.524728 0.740258 -1.783117