80
Fe1 H30 C44 N4 O1
Fe -0.017025 0.004351 -0.012143
H 1.968878 1.676777 -0.169258
H -3.104511 2.892278 -2.741906
H -3.886350 3.221926 -0.413208
H 4.388812 -2.406286 0.410240
H 1.725681 -2.293009 -4.206614
H -0.061922 -0.822953 -5.039678
H 0.267483 2.030609 -4.874853
H -0.234573 2.930461 -6.970692
H -2.396050 2.789183 -7.797943
H -4.078233 1.778599 -6.545318
H -3.562181 0.897839 -4.433300
H -5.352993 1.641139 1.054906
H 4.232270 -1.100418 -3.231603
H 6.516720 -4.403270 -3.509158
H 5.024038 -5.567859 -2.163874
H 3.176152 -4.437635 -1.241380
C -0.279323 -0.171292 -3.022186
C -1.244480 0.830382 -3.101782
C -1.855148 1.363674 -1.964839
C -2.813213 2.408623 -1.978773
C -3.236691 2.590630 -0.703658
C -2.534802 1.666595 0.119846
C 3.559083 -2.048636 0.701565
C 2.454327 -1.718987 -0.128406
C 2.396288 -1.921358 -1.506289
C 1.366982 -1.440249 -2.288236
C 1.218012 -1.680804 -3.687472
C 0.236612 -0.891683 -4.140905
C -1.600396 1.378948 -4.458044
C -0.619547 1.979698 -5.210089
C -0.915072 2.511718 -6.456199
C -2.194867 2.428987 -6.941431
C -3.192073 1.832056 -6.205148
C -2.880439 1.308945 -4.952644
C 3.523850 -2.669750 -2.146420
C 4.387090 -2.009180 -3.001568
C 5.485174 -2.691387 -3.525094
C 5.737000 -3.971799 -3.182287
C 4.873448 -4.651461 -2.364644
C 3.765163 -3.979436 -1.829755
N 0.391868 -0.545488 -1.882194
N -1.643147 0.911839 -0.662087
N 1.424775 -1.169148 0.635265
O 1.118981 1.693323 -0.127552
H 0.924160 2.414987 0.290028
H -2.826793 0.740015 4.179655
H -0.897750 -0.559489 4.975218
H 3.771551 -1.885721 2.742563
H -2.567624 3.230836 3.499270
H -4.212498 4.531612 4.532570
H -6.394311 4.429790 3.771517
H -6.975783 3.009373 2.028799
H 1.438175 0.628010 5.176963
H 2.328229 0.193994 7.287661
H 3.243699 -1.894630 7.756982
H 3.088561 -3.601422 6.205065
H 2.131210 -3.210680 4.121710
C -2.716109 1.512589 1.490670
C -1.901703 0.719650 2.262966
C -2.085627 0.461277 3.654267
C -1.033008 -0.240022 4.090215
C -0.149783 -0.422029 2.982652
C 1.114555 -0.978232 3.078051
C 1.898636 -1.254424 1.950252
C 3.224363 -1.766080 1.974028
C -3.788500 2.315710 2.158836
C -3.467965 3.174834 3.199403
C -4.439912 3.956318 3.812099
C -5.728600 3.887588 3.365705
C -6.077620 3.043738 2.335440
C -5.109157 2.244435 1.748086
C 1.691090 -1.255697 4.442870
C 1.763786 -0.240022 5.386458
C 2.310655 -0.490759 6.629875
C 2.830793 -1.735533 6.917217
C 2.751444 -2.739753 5.994792
C 2.183302 -2.506835 4.758099
N -0.716168 0.113809 1.841925
H 6.065291 -2.247189 -4.133235