87
Fe1 H44 C36 N5 O1
H 3.718273 2.457509 -3.493736
H 4.886215 1.370931 -3.610254
H -2.039090 -3.165607 2.269184
H -4.852185 -1.380068 3.826613
H -3.258956 2.721757 0.955116
H -3.680193 -2.465520 3.733498
H -5.652746 -3.417056 2.890124
H -4.617325 -3.262460 1.679584
H -5.818286 -2.217961 1.842880
H -4.715686 2.108182 2.558049
H -5.308400 0.833324 3.323367
H -6.827890 1.582247 1.654820
H 3.331271 -2.723420 -0.721961
H -6.341320 0.094639 1.323385
H -5.717080 1.335507 0.529821
Fe -0.063922 -0.050354 -0.097350
H -3.311267 4.620939 -0.447092
H -2.280389 5.742839 -0.932450
H 2.133293 3.186263 -1.991956
H -3.222631 6.326620 1.159746
H -1.639047 6.144380 1.302565
H -2.625613 4.989513 1.805875
H -0.331082 5.863956 -2.062943
H 1.029477 5.082374 -2.368807
H 1.489745 7.051483 -1.160307
H 1.903422 5.780925 -0.279356
H 0.539833 6.560050 0.029973
H 5.286742 -0.875838 -3.178603
H 4.769306 -2.117319 -2.314305
H 5.702361 3.425120 -2.723060
H 6.955010 -1.559851 -1.647216
H 5.920852 2.230938 -1.681285
H 5.958218 -1.286491 -0.425724
C -2.192886 -1.233867 1.757929
H 4.718155 3.265404 -1.470667
C -2.528044 2.135518 0.798388
H 2.391554 -5.724128 1.229531
H 3.425777 -4.609395 0.733914
H 3.278758 -6.292961 -0.896451
H 2.680054 -4.941522 -1.509949
H 1.694019 -6.093317 -0.996812
H 6.493646 -0.065076 -1.310090
C -2.628896 0.849398 1.293511
H -0.844966 -4.980631 2.808937
H 0.446185 -5.830912 2.395644
C -1.450062 2.639032 0.093298
C -3.458383 -0.931431 2.392807
H -1.510795 -6.885752 1.589032
H -0.598012 -6.434248 0.354472
H -1.885948 -5.573217 0.754988
C 2.614911 -2.127148 -0.538319
C -1.581947 -2.471253 1.809514
C -3.737158 0.368408 2.092044
C -1.364594 3.997024 -0.388660
C -4.282960 -1.890851 3.198171
C -5.172759 -2.776761 2.324373
C 1.681395 2.496926 -1.519685
C 1.555315 -2.617147 0.206279
C -0.356295 -2.780549 1.244864
C -4.960832 1.154598 2.453936
C 0.477192 2.821784 -0.920471
C -6.060857 1.030716 1.395519
C 2.282277 1.248994 -1.487352
C 2.715862 -0.842871 -1.035880
C -2.433650 5.037223 -0.255237
C -2.484692 5.682229 1.127082
C 1.486736 -3.962444 0.723374
C 0.285418 -4.068921 1.366232
C -0.153322 4.124285 -1.004799
C 3.532506 0.935399 -2.141209
C 3.813082 -0.366079 -1.849997
N -1.691501 -0.135720 1.100425
C 5.017504 -1.159947 -2.269307
C 0.408915 5.354300 -1.647149
C 6.213488 -1.003610 -1.328603
C 2.538965 -5.012575 0.557281
C 1.152096 6.268467 -0.677325
C 2.548711 -5.641506 -0.836755
C 4.335384 1.887447 -2.969970
C -0.291581 -5.273443 2.042012
C 5.251491 2.782674 -2.136283
C -1.148501 -6.117479 1.100754
N 0.428832 -1.900372 0.536385
N -0.314541 1.929321 -0.231532
N 1.786126 0.152792 -0.825105
N -0.721117 -0.351540 -1.669855
O -0.652894 -0.014500 -2.785746