101
Fe1 H38 C55 N6 O1
Fe -0.177157 -0.092014 0.024106
H -3.781585 3.475731 0.194043
H -5.054368 1.376398 0.015943
H -3.718180 -3.719847 0.668971
H -1.582340 -4.932823 0.828578
H -4.941736 -1.932172 -1.775786
H -7.238531 -2.309902 -1.930395
H -8.611482 -1.949625 -0.095172
H -5.407229 -0.826406 2.077403
H 0.263322 2.232836 -2.621522
H -1.796048 -0.484828 2.552616
C 1.430067 3.837256 0.193304
C 0.353089 2.894799 0.171390
C -0.995365 3.201472 0.316843
C -2.022755 2.268989 0.257395
C -3.416556 2.599347 0.184134
C -4.111909 1.463662 0.099292
H 1.351570 4.770985 0.347785
C -3.152072 0.400283 0.155778
C -3.482832 -0.963536 0.213759
C -2.542332 -1.968324 0.329369
C -2.851091 -3.345856 0.573946
C -1.688210 -4.006573 0.644923
C -0.628510 -3.065363 0.392644
H -0.740762 5.355657 -1.245711
H -1.254369 7.598354 -0.823837
H -2.132901 8.222918 1.232517
H -2.600152 6.601046 2.827752
H -2.108990 4.364582 2.418806
C -4.927790 -1.312594 0.167805
C -5.495234 -1.773849 -1.020692
C -6.864421 -2.005723 -1.111856
C -7.676023 -1.797535 -0.029452
C -7.127633 -1.367446 1.151540
C -5.769449 -1.125599 1.251154
C 0.605763 0.238220 -2.744192
C 0.790909 1.562146 -3.038077
C -0.984580 -0.159457 2.923892
N 0.849221 1.612012 -0.037027
N -1.880013 0.905170 0.221562
N -1.165471 -1.802522 0.249299
N -0.434564 -0.143250 -1.775451
N 0.035237 0.021305 2.115583
O -1.498015 -0.511008 -2.318115
C -1.352016 4.635102 0.552532
C -1.113448 5.604984 -0.409279
C -1.416400 6.941377 -0.156518
C -1.948496 7.309134 1.051420
C -2.211979 6.347979 1.998757
C -1.919804 5.019066 1.756376
H -7.686725 -1.234056 1.908326
H 0.290858 0.660829 5.783478
H -1.723873 -0.024820 4.830906
H 3.400039 -3.676214 -0.598023
H 4.614467 -1.564414 -0.959863
H 3.439849 3.538063 -0.096829
H 4.436179 1.936137 -2.466226
H 6.699886 2.462217 -2.685852
H 8.195001 1.973536 -0.964640
H 7.426632 0.962515 0.975970
H 5.163138 0.452641 1.217385
H 0.222067 -5.503782 -1.348282
H 0.863575 -7.727779 -1.115978
H 2.123852 -8.392235 0.738694
H 2.776057 -6.830201 2.318413
H 2.174712 -4.597478 2.066725
H 1.942858 2.810028 -4.189154
H 3.174428 1.119591 -5.209391
H 2.793519 -1.089446 -4.692362
H 1.177721 -1.676612 -3.109560
H 1.907079 0.618444 2.114918
H 2.108289 1.078452 4.391217
C 1.702017 -2.459498 -0.109231
C 3.047352 -2.799830 -0.498189
C 3.707466 -1.652926 -0.693274
C 2.795876 -0.589546 -0.428297
C 3.141457 0.759313 -0.420580
C 2.206560 1.776568 -0.197948
C 2.565576 3.169059 -0.042596
C 0.223179 0.522453 4.846142
C -0.948846 0.096104 4.294454
C 0.703348 -3.386995 0.214559
C 4.570916 1.130811 -0.600760
C 5.039524 1.735429 -1.760631
C 6.387338 2.048334 -1.890936
C 7.273050 1.759115 -0.870784
C 6.818572 1.165716 0.273437
C 5.470980 0.856551 0.415033
C 1.113865 -4.833092 0.347759
C 0.741079 -5.770561 -0.598090
C 1.118747 -7.089501 -0.462201
C 1.873473 -7.480945 0.636670
C 2.256818 -6.560928 1.569584
C 1.891040 -5.237002 1.424340
C 1.777407 1.899985 -3.971337
C 2.507410 0.896443 -4.570409
C 2.285003 -0.412524 -4.262976
C 1.330156 -0.765321 -3.333735
C 1.153388 0.472587 2.675766
C 1.290767 0.745600 4.038147
N 1.547154 -1.091940 -0.109257