85
Co1 H44 C36 N4
Co 0.010526 0.209496 -0.457810
H 3.285108 -2.413738 -1.613146
H 2.854574 3.156632 0.998790
H -3.291670 2.758598 0.814521
H -2.858166 -2.847574 -1.627770
H -0.744096 -5.595904 -2.756782
H -2.062421 -4.696642 -2.639786
H -2.115866 -5.084146 -0.320340
H -0.803480 -5.991832 -0.443186
H -2.172281 -6.467788 -1.121763
H 2.758075 -4.380742 -2.660260
H 1.564457 -5.448484 -2.756782
H 2.866451 -4.669264 -0.320340
H 2.998581 -6.105556 -1.007692
H 1.607510 -5.656978 -0.358364
C -0.922248 -2.481130 -1.531249
C -0.387792 -3.759472 -1.926110
C 0.963194 -3.643642 -1.946584
C 1.304652 -2.314756 -1.519549
H 0.747927 5.982884 1.849936
C 2.571016 -1.855648 -1.329431
H 2.060313 5.159438 1.449224
C 2.899112 -0.636274 -0.756150
H 2.029137 5.696468 3.789144
H 2.095944 4.112756 3.558077
H 0.709327 4.805630 3.958789
C 2.769952 1.339154 0.209067
H -1.591803 5.728058 2.151200
C 2.236981 2.501666 0.694600
H -2.766121 4.904612 1.440450
C 0.890449 2.825990 0.785272
H -3.008111 4.931990 3.786220
C 0.363416 4.032728 1.396576
H -1.615556 4.154876 3.923690
C -0.947486 3.940064 1.358553
H -2.867074 3.436730 3.230489
C -1.285975 2.663828 0.741399
H -6.237116 0.858986 -0.127297
C -2.571639 2.196296 0.551280
H -5.350810 2.154176 0.179818
C -2.881920 0.966392 0.007249
H -4.966298 1.448666 2.329619
C -4.243298 0.482012 -0.121447
H -5.690783 0.050282 2.037129
C -4.136407 -0.745786 -0.718126
H -6.544428 1.404440 2.066378
C -2.737914 -1.013248 -0.861447
H -5.046467 -2.179972 -1.914411
C -2.230181 -2.184184 -1.367454
H -6.104987 -1.259650 -1.139312
C -1.236983 -4.972528 -2.165952
H -5.652184 -2.394784 0.884719
C -1.615556 -5.692780 -0.902395
H -4.516465 -3.266668 0.168118
C 1.968268 -4.745080 -2.186426
H -6.054510 -3.475162 -0.226743
C 2.398802 -5.347396 -0.846822
C 1.214091 5.115212 1.961082
C 1.542188 4.915142 3.452781
C -1.973345 4.822478 2.028355
C -2.403879 4.291766 3.356259
C -5.445824 1.189628 0.369936
C -5.681876 1.008512 1.823612
H 6.263216 -0.495172 -0.706427
C -5.245403 -1.744030 -1.048640
H 5.373941 -1.482886 -1.595596
C -5.379017 -2.818090 0.042348
H 5.807444 -1.777726 1.206458
H 6.444337 -2.712790 0.074521
H 4.867692 -2.748592 0.349462
H 6.102879 1.570814 0.384561
H 5.079990 2.752280 0.735549
H 6.077641 2.000438 2.695232
H 5.592177 0.505178 2.396892
H 4.518811 1.640312 2.742030
C 4.251583 -0.238240 -0.413937
C 4.116484 1.000088 0.173968
C 5.463017 -1.078534 -0.694727
C 5.663438 -2.175760 0.323138
C 5.249234 1.781414 0.837920
C 5.369487 1.452878 2.294521
N 0.140726 -1.588186 -1.279707
N 1.984599 0.305108 -0.361289
N -0.125018 1.994120 0.384561
N -1.940684 0.056600 -0.454885