100
Fe1 H28 C57 N5 Cl8 O1
H 1.929514 -8.650813 0.044211
H 1.226466 -7.950744 -2.003597
H 5.535114 3.282461 5.257104
Fe -0.165274 -0.319743 -0.362689
H 2.723711 3.107765 -2.862388
H 0.697381 4.362750 -2.296049
H -3.925926 3.174561 -0.066102
H -4.944767 1.127022 0.809041
H -3.465583 -3.918608 1.205908
H -1.457375 -5.180015 0.550805
H 3.204422 -3.968705 -1.570294
H 4.265130 -1.914743 -2.359766
H -6.303949 -1.850516 4.040062
H -7.978164 -2.514618 2.640549
H -7.663720 -2.609673 0.408031
H 2.086469 -7.228839 1.792385
H 4.459710 0.717257 2.396986
H -2.542496 2.248416 4.170964
H -1.166040 1.070503 2.801227
C 1.764071 1.425033 -2.022850
C 1.964650 2.768650 -2.447713
C 0.850812 3.459726 -2.134664
C -0.047664 2.547711 -1.508454
C -1.323933 2.879119 -1.048811
C -2.221662 1.987656 -0.478462
C -3.532925 2.331910 -0.033194
C -4.092450 1.204094 0.444883
C -3.144919 0.152064 0.297107
C -3.360620 -1.179992 0.644040
C -2.458206 -2.207615 0.456681
C -2.698524 -3.574354 0.809289
C -1.592185 -4.265431 0.452366
C -0.679464 -3.335432 -0.100615
C 0.612177 -3.662987 -0.564943
C 1.520404 -2.779231 -1.092436
C 2.825793 -3.119631 -1.567692
C 3.409064 -1.991814 -2.007107
C 2.463656 -0.930794 -1.831405
C 2.682983 0.387133 -2.189751
C -1.750358 4.303662 -1.198387
H -1.832241 7.138617 0.379431
C -2.308165 4.787929 -2.369487
H -2.718004 7.861807 -1.615424
C -4.694811 -1.534522 1.233063
H -3.034922 6.401298 -3.328321
C -4.937140 -1.494702 2.582937
C -6.164850 -1.872353 3.120546
C -7.154732 -2.271842 2.284161
C -6.973640 -2.324507 0.962894
C -5.745179 -1.951994 0.416977
C 1.016983 -5.104228 -0.443079
C 1.476560 -5.583357 0.815053
C 1.799747 -6.912845 0.965740
C 1.701474 -7.756780 -0.077022
C 1.282271 -7.350869 -1.297031
C 0.933712 -5.999545 -1.471903
C 4.014301 0.724964 -2.786952
C 4.284508 0.586235 -4.133130
C 1.641999 1.146290 2.785165
C 2.898570 1.602298 3.316816
C 4.216576 1.327408 3.054424
C 4.854545 2.863705 4.780122
C 3.582657 3.124464 5.066522
C 2.551556 2.493761 4.364612
C 1.103595 2.588816 4.502422
C -1.623195 2.346040 4.259654
C -0.784549 1.639549 3.431394
C 0.544669 1.724328 3.482925
N 0.518716 1.290157 -1.450312
N -1.997203 0.645323 -0.268773
N -1.199354 -2.075309 -0.088686
N 1.316065 -1.429191 -1.262463
N 1.655825 0.324191 1.735574
Cl -0.947100 4.704050 1.335235
Cl -2.581752 3.680665 -3.686062
Cl -3.682011 -0.981532 3.660251
C -1.597354 5.222100 -0.188850
Cl -5.511445 -2.024955 -1.281438
Cl 1.618640 -4.522722 2.139825
C -1.951409 6.542596 -0.324662
Cl 0.373850 -5.455418 -3.014049
C -2.482466 6.967775 -1.511051
Cl 4.788163 1.404095 -0.310186
C -2.667344 6.107141 -2.526512
Cl 3.036167 0.052899 -5.196059
O 0.419490 -0.039330 1.354461
H 3.376765 3.732047 5.739877
H 0.658187 3.869491 5.977119
H -1.670817 3.707640 5.803305
H 7.007337 1.726897 -1.954644
H 7.377539 1.434024 -4.198750
H 5.714698 0.745517 -5.574861
H 6.056274 1.816814 3.608136
C 0.280070 3.309437 5.336955
C -1.111010 3.218235 5.244711
C 5.059541 1.179688 -1.996032
C 6.319506 1.439162 -2.509809
C 6.532355 1.263182 -3.847854
C 5.553971 0.853417 -4.664498
C 5.160068 1.982518 3.791410