87
Co1 H44 C36 N5 O1
Co 0.019353 0.024931 0.013028
H -2.119567 -3.170983 1.982697
H -3.322240 2.699903 0.719425
H -1.024295 -5.085425 2.353987
H 0.313574 -5.849762 2.070062
H 3.254383 -2.691601 -0.913108
H -1.493812 -7.027642 1.160895
H -0.529443 -6.579122 0.008272
H -1.860260 -5.792153 0.268199
H 2.032060 3.150481 -2.232541
H 3.702170 2.476671 -3.673089
H 4.844194 1.409892 -3.781487
H 5.678651 3.389143 -2.855418
H 5.809243 2.226693 -1.812445
H 4.654071 3.278042 -1.674579
H 5.317233 -0.823452 -3.274546
H 2.306218 -5.718086 0.945401
H 4.736425 -2.074371 -2.529872
H 3.307013 -4.615302 0.458646
H 3.228168 -6.316799 -1.113579
H -5.731172 -3.395244 2.711416
H 2.649443 -5.011358 -1.760496
H -4.743463 -3.285171 1.497595
H 1.678289 -6.136774 -1.263448
H -5.899523 -2.238966 1.666926
H -4.776829 2.089874 2.327922
H 6.814101 -1.589846 -1.623971
H -5.285212 0.869816 3.169138
H 5.734706 -1.307977 -0.523134
H -6.952779 1.515850 1.672458
H 6.371261 -0.116724 -1.318916
H -6.467740 0.074618 1.290502
H -5.974337 1.311135 0.463389
H -3.414261 4.595828 -0.700057
H -2.420645 5.693468 -1.211775
H -2.708839 4.983654 1.505413
H -0.431519 5.816914 -2.363329
H 0.840307 4.991884 -2.760418
H -3.261124 6.308641 0.875004
H -1.713996 6.082323 0.992486
H 1.844396 5.585453 -0.711724
H 1.506890 6.861062 -1.557379
H 0.584561 6.449575 -0.359547
C 0.157828 -4.122546 1.008178
C -0.474187 -2.816076 0.928731
C -1.677703 -2.494088 1.522657
C -2.277408 -1.255513 1.488994
C -3.537553 -0.939697 2.141793
C -3.815942 0.356486 1.854247
C -2.718326 0.842040 1.042280
C -2.618656 2.117649 0.545024
C -1.561555 2.611433 -0.192603
C 2.191837 1.240154 -1.732247
C -1.482823 3.960081 -0.709227
C 3.466179 0.939769 -2.359551
C 3.746842 -0.355386 -2.061931
C -0.284939 4.060895 -1.340588
C 2.638387 -0.842997 -1.270649
C 0.358322 2.777057 -1.224506
C 2.533991 -2.121692 -0.769306
C 1.584421 2.470499 -1.784394
C 1.460063 -2.633993 -0.073260
C -0.409122 -5.353920 1.653686
C 1.372039 -3.993957 0.407395
C -1.140320 -6.273593 0.682934
C -4.342259 -1.902576 2.963178
C -5.264514 -2.787272 2.133445
C -5.021629 1.151684 2.280431
C -6.214764 0.999434 1.339878
C -2.549077 5.004228 -0.540735
C -2.559490 5.654377 0.835459
C 2.450021 -5.030903 0.275559
C 0.291572 5.274781 -2.011714
C 4.293788 1.907791 -3.157217
C 2.507078 -5.684138 -1.090842
C 5.190848 2.780143 -2.296173
N 0.324749 -1.916978 0.245769
C 4.977192 -1.141325 -2.422769
N -1.772853 -0.154786 0.825171
C 6.075514 -1.028166 -1.374768
N -0.429580 1.887217 -0.522134
N 0.821432 0.492277 1.606364
C 1.134739 6.120386 -1.074368
O 0.614091 -0.046771 2.602557
N 1.686927 0.137370 -1.078383
H -4.876584 -1.402619 3.599262
H -3.735253 -2.467341 3.467277