51
H22 C26 Se1 N2
H 1.374160 -3.100258 1.548178
C -1.114192 -1.113603 -3.305711
H 2.511080 0.308452 4.686824
H -1.472906 2.626216 4.338642
C -1.375183 -2.288974 -3.993907
C -1.216086 -3.387835 3.122093
H -1.323939 -1.393265 3.839175
C 0.688910 -2.063398 -5.166400
C -0.272228 -3.941882 2.318812
C 0.947517 -0.882750 -4.471088
C -0.755479 1.887486 -2.787061
H 1.135812 1.307056 -3.253364
C -1.752369 3.825332 -2.268553
H 3.140318 0.644837 0.917235
H -1.734493 -0.795685 -2.673368
C -2.516870 3.235668 -3.215343
H 2.775050 1.320247 -1.379761
H 2.136278 -0.888027 2.766802
C -1.884056 2.000934 -3.544943
Se -0.175161 -0.229898 -0.061901
C -0.479591 -2.754638 -4.913666
C 0.211618 2.461321 5.418980
H -1.972245 -3.821838 3.473982
C 1.380119 1.768762 5.510486
N -0.685166 2.999538 -2.000030
H 1.742408 -0.410491 -4.640942
H -0.265078 -4.828357 2.006861
H -1.921596 4.657722 -1.864173
H -3.312356 3.573373 -3.585552
H -2.190929 1.374333 -4.173672
C 1.284184 -0.075424 1.116995
H -2.168286 -2.765191 -3.828456
H 1.977180 1.963997 6.210403
H -0.659544 -3.551411 -5.379490
N 0.668650 -2.982853 2.043587
H 1.303252 -2.385273 -5.800966
C 0.886143 0.606582 -1.372354
C 1.219830 -0.591216 2.534784
H 0.003064 3.131454 6.042982
C 0.846219 0.497091 3.548977
C -0.334795 1.213395 3.467747
C -0.653585 2.169786 4.400191
C 1.705464 0.784668 4.597565
C 0.328408 -1.811439 2.669419
H -0.060695 3.161795 -1.416106
C -0.846647 -2.026462 3.334129
C 2.317422 0.503687 0.485562
H -0.930069 1.041905 2.761025
C 2.109463 0.894159 -0.870790
C 0.384420 0.880967 -2.769206
C 0.054904 -0.398618 -3.540611