102
Fe1 H39 C54 N7 O1
H -5.096762 5.166326 -1.990793
C -1.653578 0.371190 2.425399
C -2.865318 0.981511 2.786372
C -3.424849 1.439252 1.632654
C -2.510525 1.091232 0.544509
C -2.757782 1.458110 -0.764267
C -1.851058 1.171808 -1.812686
C -2.091862 1.538686 -3.162803
C -1.026559 1.072374 -3.858887
C -0.120202 0.407192 -2.908579
H -7.266529 1.847276 -1.151506
C 1.089880 -0.165412 -3.228808
C 1.971907 -0.717445 -2.307253
C 3.222094 -1.326051 -2.659849
C 3.805518 -1.751219 -1.554450
C 2.861430 -1.473488 -0.510504
C 3.081289 -1.864368 0.865150
C 2.156807 -1.567780 1.889470
C 2.301061 -1.915800 3.286790
C 1.295406 -1.411771 3.969535
C 0.413595 -0.813450 2.993287
C -0.782020 -0.196271 3.333300
C -4.022931 2.215869 -1.097737
C -5.253123 1.581546 -0.976439
C -6.425443 2.282730 -1.233859
C -6.367571 3.618236 -1.610304
H -1.470488 5.018888 1.354382
H -1.011671 6.083522 -0.677008
C -3.964254 3.553089 -1.474662
H 0.336906 5.029175 -2.273226
C 1.523537 -0.125982 -4.708443
C 0.878911 -0.947172 -5.627502
C 1.279816 -0.952315 -6.957517
C 2.325075 -0.134554 -7.371154
C 2.969701 0.686637 -6.454367
C 2.568796 0.691780 -5.122079
C 4.351423 -3.906201 1.460375
C -1.127356 -0.113981 4.765458
C -0.899911 1.067230 5.463798
C -1.304974 1.180380 6.787721
C -1.937483 0.112318 7.415578
C -2.165199 -1.067179 6.716830
C -1.760136 -1.180329 5.392907
C -0.482249 -3.182730 0.311732
C -1.458071 -4.058781 0.053379
C -1.978985 -2.123240 -0.731270
C -3.704147 -3.947346 -1.076992
C 0.405210 2.704468 0.020086
C -0.394894 3.330219 0.968008
C 0.678464 3.337076 -1.187079
C -5.136574 4.254273 -1.732081
N -1.408464 0.460338 1.039160
N -0.709195 0.534057 -1.625812
N 1.700510 -0.864882 -0.963880
N 1.006300 -0.895741 1.706020
N -0.787002 -1.927800 -0.188734
N -2.421191 -3.367884 -0.631344
N 1.002805 1.420394 0.308276
C -0.923090 4.590292 0.708430
C -0.650912 5.222900 -0.498663
C 0.150538 4.595435 -1.446250
O 2.194597 1.548973 0.678787
H 4.661557 -2.152385 -1.468659
H 5.574289 -0.897455 1.115786
H 7.551836 -2.004948 1.697758
H 7.521703 -4.305653 2.127970
H 5.513752 -5.497150 1.980349
Fe 0.168176 -0.153240 0.054215
H -3.223823 1.058659 3.663848
H -4.253259 1.896993 1.549154
H -2.841775 2.010142 -3.504946
H -0.887921 1.161522 -4.794837
H 3.570928 -1.410056 -3.539524
H 3.012033 -2.426687 3.654958
H 1.172558 -1.437486 4.911407
H -5.292663 0.667779 -0.717321
H -7.168312 4.098264 -1.787549
H -3.123972 3.986828 -1.556536
H 0.163803 -1.506062 -5.343333
H 0.839597 -1.515205 -7.583877
H 2.599874 -0.137982 -8.281818
H 3.684809 1.245527 -6.736263
H 3.009376 1.252384 -4.495176
H 3.536205 -4.389658 1.398377
H -0.467592 1.795844 5.035856
H -1.149422 1.986141 7.265903
H -2.214249 0.189465 8.319428
H -2.597247 -1.797507 7.145179
H -1.915418 -1.987804 4.915132
H 0.317911 -3.393600 0.781271
H -1.477439 -4.977692 0.294249
H -2.474255 -1.432343 -1.153966
H -4.334384 -3.961061 -0.327036
C 4.368928 -2.539836 1.203959
H -3.555201 -4.862828 -1.393657
C 5.561661 -1.831795 1.291855
H -4.071798 -3.403886 -1.803401
H -0.581532 2.898194 1.792304
C 6.736889 -2.490119 1.636167
C 6.719384 -3.856484 1.892583
C 5.525576 -4.564525 1.804759
H 1.225861 2.908480 -1.835303