113
Zn1 H44 C52 N4 O12
O 2.755587 0.635925 4.734974
O 1.356262 -2.042062 0.749329
H -3.260873 -3.305033 -2.193630
O 0.638611 -3.398257 2.583008
H -1.244034 -5.418123 -5.351333
H -2.796197 -4.510293 -6.801292
H -3.498382 -2.332834 -6.563675
H -3.271721 -0.407303 -5.356679
H -0.058849 5.007491 -0.846755
H 0.453150 3.901004 0.189609
H -1.120299 1.400588 -3.157021
H -2.389787 2.401642 -3.284300
H -1.304695 2.181899 -5.506043
H -1.186885 3.693469 -4.994151
H 0.066003 2.705732 -4.868920
C -2.879199 -2.774541 -1.505299
C -1.747824 -1.905555 -1.639369
C -1.018856 -1.684701 -2.800422
C -1.454490 -2.470451 -4.010367
C -1.024250 -3.752289 -4.199043
C -1.531543 -4.520282 -5.237774
C -2.448427 -3.979801 -6.095090
C -2.867893 -2.699073 -5.953941
C -2.371784 -1.926641 -4.914168
C -0.327230 4.242828 -0.295182
C -0.902721 3.127462 -1.201247
C -1.409078 2.319516 -3.387106
C -0.911247 2.767882 -4.826545
O -2.755587 -0.635925 -4.734974
O -1.356262 2.042062 -0.749329
O -0.638611 3.398257 -2.583008
H -0.609982 1.008823 4.989010
H -2.393163 -0.650352 4.517112
H -4.044138 -3.166306 0.132034
H -6.613333 -1.709117 3.775514
H -6.379003 -3.949836 4.326227
H -4.425048 -5.067421 3.838663
H -4.828295 -0.067699 1.804782
H -2.380182 -4.565784 2.029592
H 0.070672 5.097386 3.406550
H -1.010886 4.528050 0.347193
C -0.094608 0.826813 2.939833
C -0.794247 0.602630 4.150266
C -1.770572 -0.291882 3.896120
C -1.678379 -0.594862 2.490174
C -2.521278 -1.490483 1.811507
C -2.428030 -1.810110 0.449599
C -3.300844 -2.705732 -0.239844
C -3.614885 -2.150824 2.576081
C -4.799946 -1.513789 2.905735
C -5.812195 -2.170801 3.555506
C -5.669398 -3.493702 3.890763
C -4.518771 -4.150713 3.604856
C -3.487575 -3.493702 2.976952
H 0.609982 -1.008823 -4.989010
H 2.393163 0.650352 -4.517112
H 4.044138 3.166306 -0.132034
H 6.613333 1.709117 -3.775514
H 6.379003 3.949836 -4.326227
H 4.425048 5.067421 -3.838663
H 4.828295 0.067699 -1.804782
H 2.380182 4.565784 -2.029592
N -0.642705 0.093225 1.930719
N -1.493179 -1.320681 -0.411966
O -4.997940 -0.204206 2.615606
O -2.325431 -4.136285 2.749279
O 0.095711 4.260585 3.332100
H -0.070672 -5.097386 -3.406550
H 1.010886 -4.528050 -0.347193
C 0.094608 -0.826813 -2.939833
C 0.794247 -0.602630 -4.150266
C 1.770572 0.291882 -3.896120
C 1.678379 0.594862 -2.490174
C 2.521278 1.490483 -1.811507
C 2.428030 1.810110 -0.449599
C 3.300844 2.705732 0.239844
C 3.614885 2.150824 -2.576081
C 4.799946 1.513789 -2.905735
C 5.812195 2.170801 -3.555506
C 5.669398 3.493702 -3.890763
C 4.518771 4.150713 -3.604856
C 3.487575 3.493702 -2.976952
N 0.642705 -0.093225 -1.930719
N 1.493179 1.320681 0.411966
O 4.997940 0.204206 -2.615606
O 2.325431 4.136285 -2.749279
O -0.095711 -4.260585 -3.332100
Zn 0.000000 0.000000 0.000000
H 3.260873 3.305033 2.193630
H 1.244034 5.418123 5.351333
H 2.796197 4.510293 6.801292
H 3.498382 2.332834 6.563675
H 3.271721 0.407303 5.356679
H 0.058849 -5.007491 0.846755
H -0.453150 -3.901004 -0.189609
H 1.120299 -1.400588 3.157021
H 2.389787 -2.401642 3.284300
H 1.304695 -2.181899 5.506043
H 1.186885 -3.693469 4.994151
H -0.066003 -2.705732 4.868920
C 2.879199 2.774541 1.505299
C 1.747824 1.905555 1.639369
C 1.018856 1.684701 2.800422
C 1.454490 2.470451 4.010367
C 1.024250 3.752289 4.199043
C 1.531543 4.520282 5.237774
C 2.448427 3.979801 6.095090
C 2.867893 2.699073 5.953941
C 2.371784 1.926641 4.914168
C 0.327230 -4.242828 0.295182
C 0.902721 -3.127462 1.201247
C 1.409078 -2.319516 3.387106
C 0.911247 -2.767882 4.826545