81
Ni1 H29 C46 I1 N4
Ni 0.157448 0.189705 0.076811
H 0.912057 1.359305 -2.514943
H 1.878907 0.404434 -1.733693
H 1.700531 0.244505 -3.282771
C 2.558805 -0.294080 2.404823
H 1.307586 -3.328031 -4.170016
H 1.604880 -5.357721 -5.214384
C 3.572189 -0.566901 3.480500
H 2.297704 -7.163980 -4.017591
C 3.251629 -1.430048 4.502462
C 4.208139 -1.660534 5.528328
H 2.080550 -5.035511 -0.671201
C 5.384388 -1.039633 5.533685
C 5.670049 -0.197652 4.559692
C 4.776875 0.044593 3.559570
C 2.616971 -1.126653 1.259475
C 3.631648 -2.142674 1.031223
C 3.331769 -2.765927 -0.092713
H 2.225319 1.594495 4.463621
H 0.727217 3.410162 3.921247
H 0.956004 5.475130 1.904560
H 0.400194 7.474245 2.858793
H -1.771342 7.784696 3.623066
H -3.277200 6.143070 3.354448
H -2.721390 4.176882 2.391847
H -1.882504 4.873044 -0.421742
H -2.592132 3.770003 -2.498919
H -4.319020 2.121321 -2.628280
H -5.893385 2.358863 -4.281989
H -5.500440 1.472197 -6.352479
H -3.555105 0.442064 -6.795920
H -1.907063 0.181003 -5.163063
C 0.117119 -0.496344 -2.227856
C 1.280442 0.470287 -2.457447
C 0.241207 -1.872205 -2.096738
C -1.891553 -1.477086 -2.663592
C -1.227166 -0.239987 -2.572443
C -1.910941 1.020632 -2.666692
C -2.919155 1.168801 -3.702217
C -4.141937 1.789703 -3.481853
C -5.080351 1.914354 -4.493391
C -4.848979 1.399288 -5.718147
C -3.721848 0.785442 -5.951292
H 4.005204 -2.288492 6.210428
C -2.703294 0.634920 -4.962363
H 5.973805 -1.173691 6.244000
C -1.648547 2.027245 -1.756808
C -2.112584 3.381939 -1.806168
C -1.706713 3.986378 -0.658874
C -0.971235 3.015043 0.093477
C -0.468420 3.273752 1.376195
C -0.810954 4.588464 1.994981
C 0.082219 5.597429 2.176532
C -0.270655 6.799250 2.777767
C -1.515411 6.992106 3.219691
C -2.431852 6.004308 3.065937
C -2.073806 4.826006 2.469990
C 0.339443 2.424716 2.085453
C 0.908179 2.678721 3.406321
C 1.730261 1.693275 3.681095
C 1.734138 0.790146 2.551333
C 2.077965 -2.173248 -0.597148
C 1.359290 -2.657740 -1.647467
C 1.635902 -3.944229 -2.280695
C 1.529910 -4.075936 -3.667875
H 2.450228 -7.013459 -1.757267
C 1.741894 -5.289516 -4.284940
H 3.825535 -3.462090 -0.468943
C 2.098646 -6.359630 -3.569984
H 4.368419 -2.300251 1.558987
C 2.224027 -6.267906 -2.238274
C 1.981021 -5.077845 -1.590190
H 2.399818 -1.860446 4.509645
H 6.506349 0.223338 4.558954
H 5.019880 0.663143 2.904514
C -1.486975 -3.781948 -2.150724
I -1.807276 -1.324213 0.925880
N -0.884632 1.841445 -0.570963
N 0.838379 1.229951 1.614108
N 1.696653 -1.124301 0.246926
N -1.016475 -2.443717 -2.395965