12
H6 C6
C -1.169699 -0.688483 0.294446
H 1.327405 0.845324 1.732596
C -0.382590 -0.187171 1.323062
H 1.970576 1.159618 -0.494804
H 0.644302 0.315439 -2.226786
C 0.787534 0.501159 1.028731
C 1.170756 0.688826 -0.294375
C 0.382052 0.186995 -1.323322
H -1.327307 -0.844332 -1.731569
H -1.971184 -1.159925 0.495730
C -0.788142 -0.501465 -1.028802
H -0.642746 -0.314447 2.227914