169
Bi1 H63 Pb1 C84 S1 N8 O11
Bi -0.421363 -1.063867 1.654762
H 4.302809 0.982039 -1.518755
H 1.971032 3.343468 4.079922
C -0.573890 3.774483 4.969473
H 3.838056 1.764190 3.691649
H -4.471403 2.453148 0.830055
C -0.554659 4.847860 5.826307
C -0.996575 7.718519 -1.078363
H 5.392574 0.690813 -2.657597
H 4.615315 -2.312978 0.396932
H -3.069132 3.697932 2.438080
C -0.555861 6.110950 5.318055
C -1.166049 7.841666 -2.445533
H 4.659387 -0.527345 -1.918382
C -1.660450 6.791587 -3.194202
H 2.596044 2.358291 -4.477394
C -0.605541 6.332282 3.963664
C -0.644404 5.262233 3.065564
H 4.190627 2.303375 -4.366841
H 3.309200 2.652846 -3.077023
H 3.277148 -3.474554 -1.339432
H -1.718945 -2.983630 -3.157011
H -3.593982 -1.434306 -2.657489
C -1.271821 6.517002 1.052548
H -4.235020 2.223495 -1.980889
C -1.319097 6.507017 -0.432557
H -6.398525 2.667823 -2.672073
H -8.101283 1.166760 -2.096145
H -7.624510 -0.750341 -0.880870
Pb 0.757306 1.517147 -0.875520
C -2.409664 -0.697088 -1.041026
H -4.515475 -1.607378 0.414801
C -1.993389 5.566773 -2.581386
C -3.194535 0.318044 -0.499186
H -7.123699 -4.517976 1.685141
C -1.795068 5.443626 -1.205759
C -2.485787 4.438479 -3.435297
H -6.178168 -6.326907 2.836373
C -2.764639 1.261617 0.464291
C -0.423246 2.737718 2.690900
C 0.866443 -3.730833 -2.481748
C -3.560327 2.278412 1.030534
H -3.950560 -6.857771 2.495350
C 0.845609 2.118654 2.751597
C 1.055149 -5.025542 -2.028189
H -3.493820 -3.652618 0.079357
C -2.799896 2.957385 1.909168
H 5.364529 1.229998 1.476824
C 1.954205 2.576295 3.518709
C -1.508203 2.343314 1.888887
H -1.726958 -5.298463 0.165184
C 1.477032 -6.057315 -2.856961
C 2.973856 1.719258 3.303361
H -2.047477 -6.741281 0.778437
C 6.880985 0.474474 2.591464
C 1.694184 -5.791051 -4.173417
C 2.498286 0.719104 2.368790
C 1.486647 -4.516312 -4.688216
C 7.229950 -0.548979 3.443794
C 3.252307 -0.340960 1.876012
C 1.085999 -3.474554 -3.839796
C 6.320477 -1.564110 3.751377
H 3.237083 -2.332947 3.448561
C 2.819206 -1.269556 0.917531
C 1.002263 -1.697242 -5.606917
H 3.781965 -5.531444 5.775628
H 2.007090 -6.989239 6.041238
C 0.735831 -0.227798 -5.811278
H 0.472605 -7.285458 4.306224
C 1.557963 0.427877 -6.700397
H 2.247480 -4.331592 2.194951
C 1.299945 1.750877 -7.023782
C 3.689415 -2.181510 0.224018
C 0.191750 2.396567 -6.498804
C 2.958231 -2.822207 -0.725042
C -0.642802 1.749213 -5.589264
C 1.604038 -2.324627 -0.621742
H -1.538653 -5.865938 2.986690
H -0.521004 6.851496 5.911496
C -0.342315 0.436198 -5.230691
C 0.559145 -2.662449 -1.486980
H 0.132053 -7.057469 1.790709
H -0.613154 7.222602 3.632270
C -1.813899 2.501408 -4.976653
C -0.700495 -2.058363 -1.495788
H 0.612832 -5.704515 1.092056
C -1.335123 3.599747 -4.017053
C -1.746189 -2.336276 -2.463043
C -0.565877 2.947401 -2.894188
C -2.774655 -1.490887 -2.181259
C 2.840440 5.020931 0.634098
C -4.594002 0.479466 -1.009675
C 2.174161 3.824408 -0.007865
C -4.926941 1.612752 -1.751082
H -0.661232 8.450745 -0.576703
C 4.549609 0.386274 -2.258265
C -6.205812 1.887337 -2.166054
H -0.585108 2.894148 5.325589
H -0.937679 8.657099 -2.876076
C 3.348864 2.120318 -3.898550
C -7.208236 0.990360 -1.827079
H -0.541037 4.709735 6.764807
H -1.779042 6.896429 -4.130382
C -6.922974 -0.151247 -1.110176
C -5.621266 -0.435816 -0.719296
S 3.260721 0.409405 -3.493983
N 1.199382 0.982039 2.046110
C -6.044752 -2.732343 0.112131
N -1.147619 -1.078178 -0.624088
C -5.385283 -3.890592 0.812944
N -1.504998 1.299892 1.009415
C -6.196998 -4.707689 1.600104
N 4.086459 -2.559272 3.485485
C -5.645305 -5.797708 2.255264
H -0.316673 4.842867 1.153139
N 1.533523 -1.394367 0.410342
C -4.320359 -6.103911 2.051097
C 4.654178 -0.470764 2.383782
C -3.502233 -5.343395 1.217919
N -5.289929 -1.605714 -0.001149
C 5.603716 0.521070 2.063856
C -4.041106 -4.210109 0.619577
O -1.783049 7.462240 1.672710
C -2.069513 -5.769417 0.965857
N -0.689277 5.453610 1.661806
O 5.513570 -4.280003 3.976557
H -1.987380 4.614879 -0.782817
N 0.931749 -2.146563 -4.318842
O -1.269417 -3.426294 3.437180
H -3.025060 4.806256 -4.181671
O -7.193012 -2.828864 -0.302771
H -3.073138 3.852698 -2.894743
C 5.046013 -1.534155 3.193049
H 0.889280 -5.216919 -1.115273
H 1.610448 -6.930994 -2.512474
C 4.369717 -3.850652 3.813978
O -0.537030 -3.329773 1.316942
C 3.195816 -4.765935 3.964289
H 1.991065 -6.485002 -4.747028
H 1.614455 -4.351561 -5.614705
C 3.116888 -5.593017 5.101492
C 2.090425 -6.480009 5.243269
H 0.769085 -1.534155 -3.706733
C 1.165327 -6.639768 4.215094
H 2.295558 -0.023107 -7.090898
C 1.237844 -5.859281 3.049324
H 7.516014 1.145126 2.363325
O 1.251066 -2.419483 -6.558805
H 1.886896 2.216839 -7.605230
C 2.221838 -4.904059 2.952948
H 8.100961 -0.565620 3.827591
H -0.000161 3.288551 -6.765014
O 0.676936 3.098838 -2.800928
H 6.570482 -2.268046 4.337709
H -0.877582 -0.011458 -4.585868
O -1.215730 2.231816 -2.075621
H -2.392035 1.864039 -4.484710
O 0.926941 3.724559 0.099118
H -2.355977 2.909125 -5.696415
O 2.886515 2.914118 -0.514404
C 0.239027 -6.082277 1.926496
H -0.717322 4.208826 -4.513248
O 1.961016 0.188240 -2.721527
H 3.417375 4.721384 1.365792
C -1.143613 -5.466542 2.161154
H 2.151324 5.626682 0.985832
C -0.989764 -3.950501 2.363225
H 3.377310 5.491886 -0.034239
C -0.577095 3.950883 3.592749