202
Cu2 H92 C98 N8 O2
Cu -1.770240 0.123224 0.789407
Cu 1.770240 0.123224 -0.789407
C -0.855576 7.261254 0.835098
C 0.855576 7.261254 -0.835098
C 0.000000 7.953118 -0.000000
C -1.094168 2.835554 -0.227340
C 1.094168 2.835554 0.227340
H 1.453919 5.413307 -1.420327
H -1.453919 5.413307 1.420327
C -2.454887 3.141314 -0.550644
C 2.454887 3.141314 0.550644
H 1.444599 7.738863 -1.406725
H -1.444599 7.738863 1.406725
C -2.764311 4.371047 -1.315216
C 2.764311 4.371047 1.315216
C -2.173423 4.596460 -2.546885
H -1.526615 3.984942 -2.877878
C 2.173423 4.596460 2.546885
H 1.526615 3.984942 2.877878
C -2.523855 5.716834 -3.303306
H -2.143599 5.852975 -4.161092
C 2.523855 5.716834 3.303306
H 2.143599 5.852975 4.161092
C -3.435351 6.627417 -2.787881
H -3.681399 7.390699 -3.297823
C 3.435351 6.627417 2.787881
H 3.681399 7.390699 3.297823
C -3.983366 6.426553 -1.530154
H -4.579846 7.069317 -1.169215
C 3.983366 6.426553 1.530154
H 4.579846 7.069317 1.169215
C -3.670215 5.301716 -0.800566
H -4.069110 5.158879 0.049958
C 3.670215 5.301716 0.800566
H 4.069110 5.158879 -0.049958
C -3.465175 2.299918 -0.142146
C 3.465175 2.299918 0.142146
H -6.445709 2.708341 -1.764644
H 6.445709 2.708341 1.764644
C -4.865038 2.261977 -0.528953
H -5.245294 3.759528 -1.884397
C 4.865038 2.261977 0.528953
H 5.245294 3.759528 1.884397
C -5.508118 1.449594 0.367756
H -3.968454 2.103518 -3.031508
C 5.508118 1.449594 -0.367756
H 3.968454 2.103518 3.031508
C -4.484782 0.967521 1.294249
C 4.484782 0.967521 -1.294249
H -5.295622 2.507477 -3.829686
H 5.295622 2.507477 3.829686
H 0.000000 8.903873 -0.000000
C -5.459654 2.797614 -1.805422
H -5.247158 1.141603 -2.996908
C 5.459654 2.797614 1.805422
H 5.247158 1.141603 2.996908
C -4.948918 2.074504 -3.021048
H -7.435493 1.550026 -0.327462
C 4.948918 2.074504 3.021048
H 7.435493 1.550026 0.327462
C -6.924757 0.967521 0.291012
H 7.342293 1.036708 -1.185974
H -7.342293 1.036708 1.185974
C 6.924757 0.967521 -0.291012
C -7.008637 -0.476466 -0.194652
H -6.609741 -0.543421 -1.089490
C 7.008637 -0.476466 0.194652
H 6.609741 -0.543421 1.089490
C -4.643222 0.235484 2.475774
H -7.948093 -0.755444 -0.234195
C 4.643222 0.235484 -2.475774
H 7.948093 -0.755444 0.234195
C -5.949886 0.273425 3.171575
H -6.522133 -1.058971 0.424722
C 5.949886 0.273425 -3.171575
H 6.522133 -1.058971 -0.424722
C -6.637701 -0.920599 3.404858
H -6.251854 -1.750836 3.151919
C 6.637701 -0.920599 -3.404858
H 6.251854 -1.750836 -3.151919
C -7.892173 -0.893817 4.014638
H -8.361901 -1.706199 4.163506
C 7.892173 -0.893817 -4.014638
H 8.361901 -1.706199 -4.163506
C -8.451373 0.300207 4.397487
H -9.306948 0.313598 4.811603
C 8.451373 0.300207 -4.397487
H 9.306948 0.313598 -4.811603
C -7.772877 1.485303 4.185192
H -8.160589 2.308845 4.453161
C 7.772877 1.485303 -4.185192
H 8.160589 2.308845 -4.453161
C -6.527725 1.476376 3.579166
H -6.063590 2.293222 3.438460
C 6.527725 1.476376 -3.579166
H 6.063590 2.293222 -3.438460
C -3.582607 -0.532262 3.003194
H -3.815606 -1.027726 6.383674
C 3.582607 -0.532262 -3.003194
H 3.815606 -1.027726 -6.383674
C -3.396207 -1.032190 4.365836
H -5.045846 -0.523335 5.493270
C 3.396207 -1.032190 -4.365836
H 5.045846 -0.523335 -5.493270
C -2.335591 -1.878049 4.324562
H -2.700935 1.030012 5.992700
C 2.335591 -1.878049 -4.324562
H 2.700935 1.030012 -5.992700
C -1.888231 -1.936077 2.935548
C 1.888231 -1.936077 -2.935548
H -4.117574 1.277744 6.698833
H 4.117574 1.277744 -6.698833
C -4.063518 -0.469771 5.603184
H -3.949814 1.532172 5.127038
C 4.063518 -0.469771 -5.603184
H 3.949814 1.532172 -5.127038
C -3.673943 0.969753 5.879031
H -1.368175 -1.721822 6.118008
C 3.673943 0.969753 -5.879031
H 1.368175 -1.721822 -6.118008
C -1.642183 -2.462786 5.525779
H -0.818296 -2.918077 5.216996
C 1.642183 -2.462786 -5.525779
H 0.818296 -2.918077 -5.216996
C -2.464207 -3.462642 6.353760
C 2.464207 -3.462642 -6.353760
H 3.234039 -3.005118 -6.748596
C -0.991648 -2.797559 2.328640
C 0.991648 -2.797559 -2.328640
H 1.903143 -3.835356 -7.066190
C -0.548016 -4.056306 2.976119
C 0.548016 -4.056306 -2.976119
H -2.779223 -4.187983 5.774605
H 2.779223 -4.187983 -5.774605
C -1.504247 -4.902165 3.559297
H -3.234039 -3.005118 6.748596
H -2.428791 -4.685679 3.507838
C 1.504247 -4.902165 -3.559297
H 2.428791 -4.685679 -3.507838
H -1.903143 -3.835356 7.066190
C -1.101624 -6.047089 4.207540
H -1.752159 -6.607276 4.617831
C 1.101624 -6.047089 -4.207540
H 1.752159 -6.607276 -4.617831
C 0.216224 -6.395253 4.273370
H 0.475320 -7.183086 4.734727
C -0.216224 -6.395253 -4.273370
H -0.475320 -7.183086 -4.734727
C 1.183640 -5.594030 3.666484
H 2.098863 -5.841762 3.694617
C -1.183640 -5.594030 -3.666484
H -2.098863 -5.841762 -3.694617
C 0.790336 -4.431251 3.019409
H 1.444599 -3.882224 2.601216
C -0.790336 -4.431251 -3.019409
H -1.444599 -3.882224 -2.601216
C -0.477184 -2.509654 1.001712
C 0.477184 -2.509654 -1.001712
H -2.000071 -5.080711 0.257767
H 2.000071 -5.080711 -0.257767
C 0.000000 -3.366673 -0.000000
H -2.005663 -7.419658 0.219152
H 2.005663 -7.419658 -0.219152
C 0.000000 -4.855297 -0.000000
C -1.183640 -5.553857 0.146968
C 1.183640 -5.553857 -0.146968
H 0.000000 -8.571278 -0.000000
H -5.118542 -1.668258 -2.785795
H 5.118542 -1.668258 2.785795
C -1.187368 -6.942049 0.135176
C 1.187368 -6.942049 -0.135176
H -4.063518 -2.846659 -3.025706
H 4.063518 -2.846659 3.025706
C 0.000000 -7.620522 -0.000000
C -4.169766 -1.909295 -2.764778
H -3.673943 -1.337949 -3.389947
C 4.169766 -1.909295 2.764778
H 3.673943 -1.337949 3.389947
C -3.636663 -1.710663 -1.383763
H -3.563967 -3.558610 -0.500185
C 3.636663 -1.710663 1.383763
H 3.563967 -3.558610 0.500185
C -4.063518 -2.726141 -0.361952
H -5.023478 -2.900223 -0.457735
C 4.063518 -2.726141 0.361952
H 5.023478 -2.900223 0.457735
H -3.880846 -2.382441 0.535912
H 3.880846 -2.382441 -0.535912
N -0.656128 1.528824 -0.111591
N 0.656128 1.528824 0.111591
N -3.245223 1.431293 0.922139
N 3.245223 1.431293 -0.922139
N -2.613327 -1.028842 2.168571
N 2.613327 -1.028842 -2.168571
N -0.309424 -1.203147 0.597833
N 0.309424 -1.203147 -0.597833
O -2.883607 -0.790037 -1.113041
O 2.883607 -0.790037 1.113041
C 0.000000 3.681414 -0.000000
C 0.000000 5.181197 -0.000000
C 0.863032 5.881989 -0.843518
C -0.863032 5.881989 0.843518