86
Zn1 H30 C42 S8 N4 Cl1
H 1.920157 -2.194095 -4.623384
C 2.964382 -2.315322 4.790034
C 3.538099 -2.522394 6.056970
C 3.371145 -1.610582 7.050351
C 2.536372 -0.576962 6.872642
H -1.992651 -2.207436 -4.980975
H -2.443429 -3.686521 -6.730629
H -1.242874 -5.548428 -7.010948
H 0.461581 -6.126141 -5.483775
Zn 0.175330 -0.457069 -0.016306
H -4.179757 -3.143610 -0.679342
H -2.857780 -3.702182 -2.713143
S -4.697316 -0.517799 3.099007
S -5.474414 -0.911061 0.301080
S -7.145478 1.173578 3.725623
S -8.095601 0.521041 0.588746
H -0.483989 -1.895958 5.004206
N -1.338493 -1.647124 -0.785519
H -2.777338 -2.089109 3.946847
N 1.305461 -0.992846 -1.745168
N 2.087112 -0.279405 0.931363
N -0.543182 -0.965005 1.904784
Cl -0.348908 1.711269 -0.568086
H 0.868343 -4.727101 -3.599012
S 3.849242 2.104532 -3.272044
S 4.558040 2.741408 -0.506865
H 3.712643 -0.643086 -3.806984
H 5.181843 0.440996 0.938963
H 4.389568 -0.427314 3.134998
H 1.303943 0.310489 5.511078
H -5.641368 0.569764 5.307597
H -7.014949 -0.228942 5.499335
H -6.904152 1.293645 5.975093
H -6.711396 2.271581 -0.260200
H -8.115332 2.280282 -1.026985
H -6.996736 1.204900 -1.418824
C 4.735619 3.611458 -3.012082
C 5.078635 3.877694 -1.746092
C 4.286359 5.924051 -4.338375
C 5.606818 5.596913 0.380923
H 3.143479 -2.927837 4.087618
H 4.048070 -3.307179 6.218838
H 3.844688 -1.704547 7.868023
H 2.367899 0.032073 7.582292
H 4.585360 6.547007 -5.034122
S 5.151488 4.441486 -4.492510
S 6.075809 5.234972 -1.294445
C -2.545119 -1.869857 -0.176425
C -3.323735 -2.804290 -0.913275
C -2.595206 -3.114028 -2.016422
C -1.380991 -2.404067 -1.936303
C -0.291232 -2.438869 -2.889787
C -0.616035 -3.303699 -4.073216
C 0.872897 -1.779371 -2.844115
C -1.508483 -3.023543 -5.029956
C 1.911051 -1.723688 -3.800408
C -1.757397 -3.897073 -6.110126
C -1.065295 -4.984636 -6.268581
C -0.051425 -5.337876 -5.351256
C 0.194454 -4.506108 -4.229476
H 3.327129 5.753522 -4.439875
H 4.459385 6.312094 -3.455353
H 4.655177 5.835306 0.410119
H 6.141073 6.346896 0.715463
C 1.589284 -0.989366 3.198231
H 5.760113 4.808647 0.943395
C 0.194454 -1.196438 3.072169
C -0.713172 -1.685406 4.104956
C -1.978992 -1.784592 3.530919
C -1.830250 -1.346086 2.216645
C -2.877511 -1.373928 1.203330
C 2.908225 -0.883220 -3.360798
C 2.446823 -0.455155 -2.074732
C 3.158657 0.467098 -1.156714
C 3.175352 0.146919 0.276739
C 4.298501 0.162580 1.154981
C 3.864419 -0.300286 2.355443
C 2.436199 -0.561301 2.217650
C 2.159965 -1.250381 4.562148
C 1.914086 -0.408173 5.626286
C -4.164579 -0.961524 1.474266
C -6.228745 0.202603 2.565597
C -6.593010 0.019892 1.297176
C -6.611223 0.648068 5.297567
C -7.400463 1.709529 -0.680205
C 3.794602 1.575541 -1.605840