85
Cu1 H30 C42 S8 N4
Cu 0.078556 1.117070 -0.350550
H -4.604153 2.478350 1.094400
H 4.704631 -0.485130 -1.711529
H -4.653684 2.694738 -1.401488
H -1.256652 1.022646 -5.249677
H 5.150765 0.993717 0.238083
H 0.787461 -0.421487 -5.118650
H -2.976931 4.328645 -3.199266
H -4.309875 5.225442 -4.899719
H 4.276394 -5.169304 -5.700063
H -5.419924 3.810238 -6.391698
H 4.099940 -6.754610 -5.575619
H -5.152021 1.506338 -6.217438
H 3.546541 -5.987414 -6.865864
H -3.731845 0.603755 -4.595787
H 5.219199 -4.603454 -0.744544
H 6.141660 -5.819627 -1.225214
H 6.029607 -4.498153 -2.119963
H -5.774361 -2.225495 2.885083
H -6.822477 -1.028994 3.063476
C -2.583055 1.837285 0.831745
C -3.891663 2.290890 0.493239
C -3.919555 2.403135 -0.874532
C -2.639052 2.001601 -1.359299
C -2.268172 1.832656 -2.702089
C -1.114133 1.169605 -3.125766
C -0.783130 0.784271 -4.461412
C 0.348900 0.004347 -4.391960
C 0.733235 -0.041939 -3.029352
C 4.057223 -0.019953 -1.193033
C 1.903148 -0.715405 -2.455108
C 4.297497 0.787743 -0.125808
C 2.633159 -0.033839 -1.386609
C 3.042640 1.271435 0.349847
C -3.204482 2.375363 -3.739478
C -3.398368 3.751223 -3.825702
C -4.206747 4.283516 -4.826826
C -4.859596 3.445734 -5.716382
C -4.692395 2.082602 -5.617700
C -3.857581 1.544524 -4.643879
C 2.304868 -1.937363 -2.908705
C 3.686230 -5.927242 -5.897593
C 2.457317 -4.345408 -3.980491
C 5.542414 -5.103346 -1.523323
C 3.307015 -4.370865 -2.952900
S 3.535118 -2.878942 -2.053147
S 1.619972 -2.812058 -4.268102
S 4.149239 -5.814767 -2.397998
S 2.085105 -5.682503 -5.066038
N -1.829584 1.670423 -0.274786
N -0.126984 0.668324 -2.264549
N 2.026691 0.753722 -0.470366
N 0.346384 1.798751 1.489817
H 1.856135 3.395976 3.824382
H -0.614611 3.184216 4.203189
H 4.779515 3.750066 0.956995
H 6.575291 4.464032 2.279259
H 6.864057 3.597321 4.420040
H 5.392495 1.992344 5.237408
H 3.600420 1.274906 3.940094
H -0.782195 -1.190997 6.548118
H -1.247771 -2.230124 7.672847
H -1.562611 -2.524042 6.131893
H -7.170418 -2.487013 3.624267
C 2.808493 2.012016 1.512066
C 1.541011 2.283948 2.046986
C 1.236776 2.951627 3.258745
C -0.120558 2.839383 3.468356
C -0.630577 2.106902 2.371921
C -2.022547 1.666025 2.170215
C 3.989376 2.455207 2.318121
C 4.893661 3.394819 1.830744
C 5.965580 3.818338 2.616557
C 6.139216 3.301089 3.882525
C 5.263792 2.354534 4.368383
C 4.197876 1.929857 3.598125
C -2.713692 1.096704 3.197052
C -3.238770 -0.275685 5.361382
C -4.307369 -0.460830 4.568917
C -1.481773 -1.823962 6.811471
C -6.452392 -1.836690 3.476833
S -2.030020 0.875340 4.808077
S -4.334631 0.433537 3.044212
S -3.054361 -0.952738 6.965604
S -5.697985 -1.411666 5.051525