135
H56 Pd3 C72 N4
H -3.231016 -1.702027 3.066225
H -4.116021 1.090010 1.584553
H -5.905335 -3.078438 -1.349009
H -4.783818 -3.411757 -2.439986
H -5.945876 -5.384222 -1.854712
H -4.431167 -0.729520 -4.057773
H -4.412602 -5.521471 -1.417135
H -5.529104 -5.188152 -0.321423
H -5.159522 -3.332022 2.307815
H -5.512465 -1.807905 1.970139
H -4.880705 1.560578 -4.495596
H -6.096311 -2.985632 1.056553
H -2.393158 0.239066 -4.294799
H 0.341650 0.010318 -6.790088
H -1.034202 -0.404044 -6.084147
H -1.460671 1.219416 -7.774043
H -1.840801 1.836383 -6.347410
H -0.466777 2.248130 -7.055149
H 2.390853 0.907011 -6.351133
H 2.943292 2.133102 -5.482803
H 3.360005 0.633820 -5.108029
H 3.397068 1.854683 -2.859711
Pd 0.076311 -1.676799 0.216867
Pd -0.358136 1.555349 -0.633297
H -6.165644 -0.734748 -0.579269
H 6.310582 3.998382 2.013440
H -5.854562 0.334487 0.571482
H -6.522438 0.808976 -0.804540
C 2.009083 -1.287666 0.341105
C 1.473191 2.186695 -0.168626
H -5.709417 -0.796184 -3.097089
H -6.143512 0.663884 -4.900683
H -6.157701 1.493914 -3.533728
C 4.222809 -0.830169 -0.330426
C 5.413718 -0.678542 -1.034867
H 4.093818 3.658527 2.746558
C 2.876989 -1.210545 -0.797606
C 2.575814 -1.508571 -2.109199
C 1.349409 -1.947768 -2.604614
C 1.054587 -2.356901 -3.942212
C 2.046207 -2.364744 -5.071872
C -0.261258 -2.746427 -3.973765
C -1.009887 -3.334637 -5.124746
C -0.954320 -4.867904 -5.123988
C -0.749370 -2.567349 -2.630791
C -2.064849 -2.852304 -2.207298
C -2.611462 -2.679763 -0.967265
C -3.992142 -2.950339 -0.593004
C -4.111753 -2.606563 0.699836
C -2.845838 -2.121617 1.140415
C -2.515236 -1.729477 2.441667
C 2.597973 2.168395 -1.081214
C -5.047499 -3.550314 -1.497085
C -5.251732 -5.044367 -1.251260
C -5.326631 -2.690220 1.585674
C -3.317381 1.211573 1.084840
C -3.349296 0.871719 -0.276150
C -4.516771 0.418143 -0.982999
C -4.142150 0.207695 -2.272610
C -4.983365 -0.207974 -3.422880
C -5.596024 0.984132 -4.152551
C -2.738781 0.564542 -2.344504
C -1.951995 0.514871 -3.500497
C -0.597723 0.819433 -3.625289
C 0.179098 0.735777 -4.869764
C -0.389358 0.337101 -6.210531
H 7.279105 0.206388 1.499271
C -1.104650 1.518750 -6.911667
C 1.445310 1.099160 -4.544419
H 7.372195 -0.189674 -0.779624
C 2.638778 1.202423 -5.449909
C 1.447730 1.378886 -3.145023
C 2.569567 1.810240 -2.393551
N 0.233647 -2.094167 -1.803640
N -1.928992 -2.198738 0.121665
N -2.292324 0.964525 -1.127317
N 0.214858 1.224645 -2.599137
C -5.883831 0.186781 -0.397776
H -2.745597 -1.153031 5.384134
H -1.802193 -0.628870 7.438899
H 1.910004 -0.415808 5.788343
H 0.477270 -0.211895 7.651948
H 2.978895 -0.797491 3.508462
H 5.259650 -0.091639 2.686393
H 6.903154 3.572256 -0.209365
C 5.654998 3.674213 1.406056
H 5.330183 2.739612 -1.727322
H 1.669616 3.204952 3.002200
H 0.276028 3.089924 5.089070
H -1.431348 2.970975 6.721782
H -4.107407 1.832462 3.916528
H -3.600811 2.357929 6.106003
Pd 1.202513 0.671335 1.697624
C -0.041571 -1.379165 2.168651
C -0.911614 1.952718 1.237690
C -1.276976 -1.379165 2.927084
C -0.990170 -1.083753 4.335435
C -1.811570 -0.997482 5.456398
C -1.245735 -0.685077 6.669981
C 0.408460 -0.862847 4.464134
C 0.973380 -0.551750 5.698896
C 0.120877 -0.447179 6.802913
C 0.995888 -1.038003 3.128374
C 2.350400 -0.898140 2.803862
C 2.814227 -0.902061 1.493855
C 4.191038 -0.626256 1.043062
C 5.300617 -0.239345 1.747748
C 6.494286 -0.069417 1.039634
C 6.546894 -0.295551 -0.321611
C 3.778406 2.678177 -0.384330
C 5.083902 2.914768 -0.827097
C 6.012218 3.410172 0.076437
C 3.433318 2.977511 0.935654
C 4.346351 3.468993 1.850130
C 1.988421 2.688634 1.060286
C 1.247474 2.827190 2.239959
C -0.082060 2.432436 2.334604
C -0.921882 2.469036 3.548875
C -0.604219 2.819347 4.855420
C -1.622039 2.759219 5.815782
C -2.227926 2.075589 3.202079
C -3.218204 2.063824 4.155826
C -2.917224 2.386686 5.445856
C -2.213241 1.710898 1.762085
H 5.453538 -0.831476 -1.971345
H 3.277287 -1.404001 -2.741841
H 1.885540 -1.593535 -5.653518
H 2.955465 -2.316380 -4.708412
H 1.945582 -3.192159 -5.589238
H -1.954957 -3.043146 -5.081052
H -0.625195 -2.996089 -5.971602
H -1.457714 -5.212987 -5.890652
H -0.021451 -5.160702 -5.186026
H -1.349959 -5.207759 -4.292594
H -2.644537 -3.207845 -2.871322