113
Ni1 H52 C56 N4
H -6.330702 4.344609 -5.702457
H -7.366488 3.234662 -5.189991
Ni 0.026656 -0.044567 -0.002914
H -6.447726 2.944452 -6.468315
H -3.524620 -3.092178 -1.981550
H 0.018464 -4.939341 1.408989
H 1.776312 -3.900914 2.819559
C -2.390733 -0.137819 -1.773107
C -3.379958 -1.057962 -2.269792
H -4.119699 -0.842024 -2.825454
H -4.308929 2.102707 -0.486727
C -1.966958 -4.543225 -0.413539
C 2.345496 4.306098 -0.042535
C -1.450559 -5.466119 -1.331647
C 3.494570 4.395499 -0.833077
C -2.146228 -6.664092 -1.549097
C 4.191983 5.600350 -0.879164
C -3.315471 -6.954302 -0.879545
C 3.772689 6.710297 -0.166361
H -1.804120 -7.291275 -2.173575
C -3.778338 -6.058916 0.071598
C 2.629839 6.603016 0.593377
H -4.557916 -6.272103 0.571316
C -3.123502 -4.845813 0.313472
C 1.902797 5.413295 0.669931
H -4.545466 -4.226883 1.668076
C -3.676751 -3.898163 1.353873
C 3.983332 3.212655 -1.627083
C -0.162051 -5.214421 -2.076264
C 0.657862 5.376159 1.522006
H -3.788546 -3.008279 0.958133
H -3.056524 -3.844522 2.111607
H 4.975794 5.660867 -1.414215
C -4.098535 -8.210042 -1.198477
C 4.550026 8.014177 -0.195739
C 3.053366 -1.614999 3.538383
H -0.086110 -4.259893 -2.284591
H 2.326573 7.359486 1.079438
C 2.591993 -1.566860 4.853990
H -0.158317 -5.730196 -2.909438
H 4.323448 2.526331 -1.014520
C 3.471166 -1.870823 5.890777
H 0.596114 -5.488125 -1.520230
H 4.699418 3.498738 -2.229692
C 4.797519 -2.210547 5.650310
H 3.242845 2.842673 -2.150772
H -4.577835 -8.089007 -2.043866
H -0.133418 5.455933 0.948165
H -4.742166 -8.384718 -0.479822
C 5.222291 -2.280692 4.344152
H 0.675790 6.120251 2.160249
H -3.482292 -8.967887 -1.275648
C 4.376482 -1.990483 3.268684
C 1.174510 -1.176246 5.173203
H 3.155699 -1.846066 6.786173
H 0.621012 4.527538 2.012817
C 4.909812 -2.038622 1.858726
H 6.121134 -2.535141 4.165916
H 5.496176 7.835375 -0.010661
H 0.929756 -0.381265 4.654868
C 5.757115 -2.452617 6.792346
H 4.193975 8.622103 0.486432
H 1.099067 -0.976813 6.130098
H 4.460391 8.428172 -1.079664
H 0.573705 -1.914836 4.941671
H 4.447941 -2.742827 1.358275
H 5.869657 -2.229803 1.879438
H 4.759175 -1.173495 1.423193
H 6.198319 -3.319119 6.670491
H 5.264619 -2.453993 7.638233
H 6.432367 -1.742911 6.806621
N -0.281565 1.675921 -0.883120
N 1.504418 0.728545 0.988753
C 3.238861 1.068407 2.497828
C 3.111131 2.207238 1.808272
C 2.028535 2.003679 0.871076
C 1.600527 3.000844 0.013315
C 0.489049 2.823417 -0.791435
C -0.058473 3.870096 -1.604092
C -1.181404 3.381829 -2.162483
N 0.352853 -1.771107 0.843856
C -1.312371 2.021559 -1.725264
N -1.477698 -0.811215 -0.964693
C -2.348904 1.189442 -2.129116
H 3.860332 0.901983 3.198240
C -3.062500 -2.282068 -1.801953
H 3.631264 2.996717 1.911675
C -1.900727 -2.129398 -0.982482
H 0.302309 4.740725 -1.724388
C -1.338266 -3.178829 -0.270838
C -3.419049 1.747854 -3.022585
H -1.774242 3.849465 -2.738512
C -0.277332 -2.978020 0.594269
C -4.687887 2.027060 -2.505754
H -6.517443 2.771152 -2.993312
C 0.276663 -4.024700 1.409918
C -5.660928 2.562091 -3.347541
C -5.410198 2.798660 -4.690069
H -3.980266 2.694129 -6.102088
C 1.234267 -3.459410 2.174777
H -1.858897 1.650201 -5.953072
C 1.280081 -2.068881 1.833138
C -4.160781 2.522204 -5.184309
C 2.154025 -1.172120 2.417783
C -3.143919 1.994051 -4.381839
H -1.450559 0.849718 -4.630601
C 2.262583 0.137261 1.987657
C -1.784450 1.702466 -4.977147
H -1.161734 2.419049 -4.736506
C -5.023770 1.756107 -1.058499
H -5.867587 2.198985 -0.830627
C -6.484078 3.381829 -5.593323
H -5.113156 0.790576 -0.919620