252
Mn1 P1 H125 C117 N7 O1
Mn 0.126167 0.007656 0.575773
P -0.243861 -1.619349 -2.612622
O -0.085118 -1.020440 -1.251164
C 6.293650 4.181094 -2.565103
C 6.198561 3.453164 -1.408855
C 7.632818 4.496523 -3.249610
C 8.817456 4.118008 -2.509383
H -2.297163 -9.189047 4.392699
H -5.321028 0.294188 -0.085217
C -0.159701 6.137774 -3.419600
H -7.619144 0.520077 0.006840
H -7.160307 4.476173 0.778849
H -4.870514 4.246215 0.702078
H -9.637272 0.831436 1.091569
H -10.889928 1.562012 0.413873
C 0.415789 7.321754 -2.926026
H -9.729443 0.949468 -0.500056
H -10.559683 3.662161 -0.835756
H -9.179751 4.463963 -0.729975
H -9.270450 3.143229 -1.627691
H -9.220870 2.996707 2.460072
H -9.265307 4.380527 1.653863
H -10.576400 3.466799 1.751713
C 9.735236 -0.011066 0.928290
H -3.834549 3.267366 -2.530532
H -9.082136 -4.986712 5.368675
H -7.864427 -4.077054 5.873223
H -0.348098 4.126148 -3.123192
H -4.825161 5.137558 -3.451937
H -2.953713 7.475806 -0.755621
H -1.930499 5.597474 0.167908
H -6.736505 6.969084 -1.845905
H -5.803331 7.606048 -0.711951
C -2.641715 0.949061 0.722231
H -6.613586 8.558441 -1.708787
C -3.384211 2.083793 0.216644
H -4.616490 7.516506 -4.636145
C -2.430336 2.971269 -0.339769
H -5.919940 6.741160 -4.121324
C -1.137693 2.385588 -0.175295
H -5.943152 8.334588 -4.271867
C 0.282210 2.604760 -0.451183
H -4.840141 9.753003 -2.659469
C 1.203362 3.548810 -1.011305
H -3.910593 9.114004 -1.526273
C 2.494269 3.034966 -0.844411
H -3.447635 9.073304 -3.058584
C 2.351795 1.759409 -0.142415
C 3.034187 -0.194626 0.902105
H -0.698467 6.169317 -4.201269
C 4.008326 -1.118325 1.446182
H 1.403193 8.033404 -1.306327
C 3.318280 -2.093308 2.125459
H 1.807315 6.004480 -0.265496
C 1.901230 -1.803926 1.973661
H 4.958140 2.646682 -0.004112
C -0.392452 -2.225991 2.296114
H 6.997480 3.151369 -0.992470
H -0.148048 7.888917 -5.536287
C -1.506534 -3.020060 2.761714
H 0.351797 9.891385 -2.000686
H -1.440704 8.299993 -4.689349
H 9.610017 4.492453 -2.946723
C -2.673902 -2.334255 2.443832
H 8.754862 4.463963 -1.595441
H -0.546151 9.431469 -5.383837
C -5.694599 1.150122 0.088558
H 8.888325 3.141194 -2.485579
H 7.429296 3.051653 -4.709132
C -2.287252 -1.108964 1.770658
H 6.915216 4.490418 -5.185894
H 1.697581 9.960576 -4.533919
C -4.837173 2.235199 0.282083
H 2.291151 9.221861 -3.242139
H 8.484389 4.187199 -5.103994
C -7.067910 1.283009 0.139783
C -7.657888 2.531296 0.386730
C -6.789132 3.621257 0.598286
H 3.053434 4.594205 -2.973868
C -5.424135 3.488574 0.552405
H 5.457212 -0.312250 -0.625043
H 7.725013 0.104931 -0.812131
H 5.101877 5.170118 -3.891674
H 8.279064 -1.028580 3.001408
C -9.183669 2.726455 0.402670
H 6.008305 -1.484427 3.196927
C -9.926767 1.399209 0.346646
C -9.584245 3.574655 -0.807091
C -9.599166 3.458659 1.683255
C -2.820592 4.213451 -1.043368
H 10.804783 1.767549 0.675555
C -3.666195 4.119025 -2.145842
H 9.385968 1.794005 -0.065710
H 10.481605 -1.388781 2.280440
H 9.463410 1.973087 1.525090
H 9.843052 -0.446562 -1.097198
H 10.216811 -1.702175 -0.174106
H 2.691031 -3.102275 4.518561
H 10.197742 0.037775 2.946244
H 3.464768 -5.002992 5.597583
H 5.941491 -5.760023 2.522902
H 5.188847 -3.865411 1.427803
H 5.247132 -8.110481 3.116209
H 4.862973 -8.924493 4.437367
C -4.265235 5.239512 -2.691197
H 3.789901 -7.951749 3.756513
H -0.405044 10.542595 -3.251017
C -4.073062 6.517918 -2.157730
H 7.111889 -6.219939 5.417121
C -3.161415 6.616617 -1.105997
H 7.076902 -7.813367 5.262173
C -2.543868 5.492263 -0.550880
H 7.147598 -6.883359 3.959121
C -4.916446 7.699863 -2.625728
H 3.736011 -7.113317 6.212310
C -6.132809 7.709834 -1.629357
H -1.117996 9.394838 -2.391456
H 5.045366 -7.949714 6.597260
C -4.217126 9.026498 -2.452864
C 3.780070 3.521337 -1.391984
C -5.388988 7.561277 -4.035325
C 3.852166 4.295056 -2.558964
H -2.619849 -5.375402 2.190340
C 0.840169 4.841664 -1.629915
H 5.025339 -6.362391 6.792032
H -2.195099 -7.479622 3.053000
H 1.117753 -8.590748 3.628717
H 2.158706 8.430234 -4.627709
H 0.507580 -9.982708 4.133955
C 0.050176 4.915536 -2.776667
H -0.263222 -9.125961 3.021674
H 0.463029 -5.898405 5.634745
H -0.128158 -7.845928 6.892505
H 0.045655 -3.784010 4.774559
H 0.523820 -9.250098 6.484913
C 4.971283 3.136513 -0.818183
H 1.211964 -7.884593 6.018302
C 1.089418 7.234655 -1.714042
C 1.319118 6.026051 -1.080907
C 0.337037 8.658361 -3.658450
H -1.544525 -10.015269 5.537169
C -0.527504 8.560476 -4.931969
H -2.281624 -8.639589 5.893996
C 7.613583 4.014222 -4.690192
C 5.474533 -0.914822 1.311124
C -0.261270 9.716373 -2.744882
C 6.021009 -0.454702 0.125424
C 1.746964 9.107899 -4.050192
C 7.380071 -0.198289 0.019543
C 8.249201 -0.368213 1.078221
H -3.614533 -3.464510 4.629554
C 7.706252 -0.869848 2.260114
C 6.348181 -1.141321 2.380768
C 5.082126 4.624730 -3.113388
H -7.574795 -5.497504 5.193697
H -5.768047 -4.127930 5.195618
H -7.117166 -2.731900 1.660419
H -4.963652 -2.068480 1.089666
C 10.548320 -0.420107 2.154005
C 9.858035 1.521311 0.748588
C 10.318894 -0.733501 -0.289405
C 7.789659 6.098091 -3.274571
C 3.842234 -3.275252 2.847198
C 3.352430 -3.640337 4.098246
H -8.467825 -4.675352 1.875622
C 3.816511 -4.781174 4.742633
H -7.902326 -5.839389 2.816344
C 4.782857 -5.608413 4.170517
H -9.424133 -5.365227 2.955761
C 5.272028 -5.224810 2.934088
C 4.824976 -4.091299 2.276803
H -9.106028 -2.493801 2.897457
C 5.244494 -6.924059 4.814874
H -9.946912 -3.191816 4.065838
C 4.741298 -8.081991 3.953817
H -8.752040 -2.192617 4.428931
C 6.786079 -6.962725 4.867206
C 4.714882 -7.103142 6.229287
C -1.321566 -4.348730 3.370369
C -1.982248 -5.472677 2.886207
C -1.725664 -6.731953 3.401453
C -0.791520 -6.931386 4.423187
C -0.159224 -5.801944 4.922985
C -0.410228 -4.535342 4.411637
C -0.473388 -8.347969 4.917231
C 0.288507 -9.075085 3.829421
C 0.356641 -8.330672 6.191694
C -1.764258 -9.117821 5.212747
C -4.054807 -2.713991 2.792599
H 8.677545 6.334155 -3.616713
C -4.323093 -3.321041 4.013814
C -5.612909 -3.723773 4.349684
C -6.673000 -3.547946 3.481420
C -6.403124 -2.899179 2.263836
C -5.116890 -2.496447 1.923576
H 7.102937 6.484747 -3.854574
C -8.091319 -4.034318 3.800705
C -8.159596 -4.709948 5.185713
C -8.508687 -5.070148 2.770443
C -9.060139 -2.876387 3.798161
H 7.685826 6.450151 -2.364993
H -2.581869 2.089084 -4.638368
H -1.000075 2.469634 -6.261368
H 0.896206 1.081745 -6.439503
H 1.177748 -0.690766 -4.912376
H -3.380442 -0.397721 -3.027972
C -0.552821 -0.342776 -3.858617
H -2.348877 0.037775 -1.882864
C -1.684707 0.489551 -3.775358
H -3.247712 1.142796 -2.613586
C -1.820372 1.523346 -4.687150
H -3.739310 -4.565461 -4.371748
C -0.883901 1.749234 -5.654394
H -4.449148 -5.141374 -2.223440
C 0.251200 0.925047 -5.761533
H -3.454399 -4.266312 -0.381066
C 0.416567 -0.127063 -4.855446
H -1.691207 -2.774635 -0.606421
H -2.152046 -2.025745 -5.450055
C -2.758928 0.300294 -2.733433
C -1.645116 -2.754285 -2.657657
H -0.825187 -2.902842 -5.260200
H -2.149521 -3.572367 -5.860034
C -2.256057 -3.289498 -3.803941
C -3.305851 -4.184910 -3.617189
H 4.480383 -2.558922 -3.249154
C -3.729320 -4.528830 -2.328558
H 4.113513 -4.740473 -3.919418
C -3.147854 -4.020073 -1.244846
H 2.003090 -5.595186 -4.078298
C -2.105436 -3.134835 -1.382491
H 0.165550 -4.254101 -3.558674
C -1.806297 -2.913017 -5.222919
H 2.747635 -0.652100 -1.595488
C 1.221774 -2.577237 -3.083173
H 3.632336 -0.409932 -2.904260
C 2.520901 -2.033885 -2.982027
H 2.058341 -0.118922 -2.938617
C 3.591027 -2.886562 -3.304712
C 3.369895 -4.188980 -3.705746
C 2.132242 -4.695703 -3.801789
C 1.043774 -3.897971 -3.491916
C 2.757446 -0.700941 -2.574915
H 11.485707 -0.169798 2.019087
N -1.332165 1.185531 0.461379
N 1.028496 1.569745 0.028843
N 3.316837 0.920367 0.247110
N 1.775163 -0.660240 1.230098
N 0.896093 -2.554242 2.435329
H 11.270415 -0.513718 -0.373849
N -0.903089 -1.098178 1.693299
N -3.112376 -0.155960 1.342612