302
Ni2 H116 C150 N14 F20
C 3.842659 0.404146 3.648602
N 6.660070 -1.121082 10.017419
C 3.139438 0.326202 4.854350
C -4.356738 -7.989041 -11.331786
C 1.755628 0.198151 4.989586
N 6.698869 1.668970 10.017874
C -2.921197 -8.333463 -10.841401
C -5.140789 -5.879482 -10.137076
C 1.081506 0.095659 6.274684
C -5.058343 -9.277400 -11.717626
H 4.877283 -8.282850 9.465889
C 0.205308 0.160950 -5.997446
C -4.313090 -7.116216 -12.577222
H 6.295042 -5.116995 7.400787
C 0.336253 0.195873 -4.548599
H -7.328049 4.097139 -11.059176
C 1.543853 0.511446 -3.882751
H -8.666595 2.391474 -12.189954
N -5.082592 -1.701616 -7.813147
C 1.833225 0.316839 -2.534287
N -5.002246 1.093498 -7.832565
H -8.763591 -0.225229 -12.096973
C 1.049174 -0.365427 -1.492405
H -8.726409 -2.844462 -12.232432
C 1.778260 -0.300136 -0.359510
H -7.444445 -4.608332 -11.095747
C 3.023043 0.386179 -0.705184
H -4.547497 4.552657 -10.987550
N -3.297865 -0.374285 -2.387885
C 4.175679 0.610142 0.068705
N -0.868114 -0.049854 -3.964400
C 2.599493 1.164610 -4.720593
N -3.020779 -0.745026 2.015196
C 2.352154 2.342885 -5.378990
F -4.217064 0.532198 4.310298
H -1.922138 7.045357 -12.328806
C 3.291398 3.004400 -6.135577
F -6.084560 -0.764765 5.724453
H 6.715358 5.532023 7.317366
H -2.036916 7.106093 -10.733542
C 4.539414 2.469924 -6.251751
F -5.475425 -3.103348 6.977970
H 5.532006 8.938291 9.119609
H -2.305272 5.729414 -11.501728
C 4.859501 1.295698 -5.598681
F -3.000249 -4.155344 6.753841
H -3.983303 6.817598 -13.742759
C 3.894390 0.642788 -4.873058
F -1.141805 -2.941639 5.247958
H -4.353505 5.476348 -12.950056
C 5.418844 0.951022 -0.705718
F -5.355959 1.140315 1.790494
H -5.413995 6.670820 -13.041321
C 5.928074 0.053397 -1.652246
F -7.473543 0.554721 3.310165
H -3.550054 8.862371 -12.615142
C 7.024129 0.342651 -2.418635
F -8.766015 -1.800818 2.990172
H -4.977513 8.799105 -11.893807
H -7.625504 6.574655 -6.644228
F -7.863952 -3.607456 1.140928
C 7.670769 1.533580 -2.267242
H -3.650284 9.009150 -11.025990
H -7.552757 7.898190 -5.746834
F -5.671357 -3.065642 -0.305839
C 7.232670 2.437785 -1.322559
H -8.028037 7.991824 -7.271480
C 6.104283 2.133853 -0.571981
H -5.339631 6.207709 -5.510086
H -4.175679 7.265525 -5.807784
H -4.768971 -5.364999 -10.842501
H -5.404295 7.670430 -4.864057
H -2.436217 -8.801635 -11.552536
H 6.385571 0.721238 1.789822
H -5.879576 9.616508 -6.299163
H -2.445916 -7.508468 -10.611009
H 5.892508 0.561807 4.203343
H -4.604078 9.186296 -7.166036
H -2.976161 -8.910454 -10.050214
H 1.472723 0.192330 7.135513
H -5.966872 9.596263 -7.898621
H -4.574979 -9.702550 -12.454990
H 0.902063 0.296087 -6.628419
H -5.077742 -9.882227 -10.945677
H -8.760357 -8.591591 -8.021342
H -5.974955 -9.077477 -12.000026
H -7.644903 -9.654468 -8.450611
H 0.197225 -0.771851 -1.596662
H -3.860442 -7.599572 -13.300098
H -8.414405 -9.821491 -7.058515
H 1.530921 -0.635196 0.493276
H -5.226469 -6.893518 -12.856005
H -6.291809 -9.707612 -5.722374
H -3.823260 -6.288690 -12.381432
H -5.737315 -9.826553 -7.218598
H -5.048643 -8.814289 -6.185850
H -8.191314 -6.840374 -6.426424
H -8.226879 -8.146195 -5.497546
C 7.425045 -7.533775 6.647947
H -7.093642 -7.037765 -5.278114
C 5.137556 -7.156706 5.654447
C -5.131090 -3.064882 -7.997628
C 5.582121 -9.155928 7.112179
C -4.408469 -3.741581 -6.947260
C 6.456702 -2.487639 9.943199
C 8.044203 9.176173 7.696558
C -3.938038 -2.802200 -6.132146
C 7.294101 -3.160541 10.901143
C 5.897358 9.214133 6.469641
C -4.338955 -1.525482 -6.661945
C 8.008638 -2.237863 11.521227
C 7.644903 7.498346 5.945538
C -3.960671 -0.321900 -6.116759
C 7.612571 -0.955071 10.997463
C -4.264592 0.890033 -6.676453
C 8.076535 0.241172 11.442506
C -3.802244 2.148277 -6.161383
C 7.635204 1.473856 11.021148
C -4.211244 3.101071 -7.011575
C 8.071686 2.718435 11.557147
C -4.977513 2.457271 -8.039536
C 7.389480 3.674518 10.928454
C -5.622536 3.131945 -9.060096
C 6.553698 3.033502 9.955021
N 5.082592 1.701616 7.813147
N 5.002246 -1.093498 7.832565
C 4.825552 -5.142554 10.295286
C 4.613777 -6.516450 10.443043
N 3.297865 0.374285 2.387885
N 0.868114 0.049854 3.964400
N 3.020779 0.745026 -2.015196
C 3.886307 -7.059782 11.666440
C -5.798745 -3.717286 -9.015011
F 4.217064 -0.532198 -4.310298
C 2.403885 -6.703718 11.546900
C -5.431777 4.622757 -9.170308
F 6.084560 0.764765 -5.724453
C 4.461817 -6.450652 12.969447
F 5.475425 3.103348 -6.977970
C 4.028568 -8.566031 11.813340
N -6.660070 1.121082 -10.017419
F 3.000249 4.155344 -6.753841
C -5.021161 7.345747 -9.390747
N -6.698869 -1.668970 -10.017874
F 1.141805 2.941639 -5.247958
C -5.624153 6.854546 -8.243838
F 5.355959 -1.140315 -1.790494
C -5.848860 5.474324 -8.161421
F 7.473543 -0.554721 -3.310165
H 7.625504 -6.574655 6.644228
C -6.031536 7.743820 -7.069443
F 8.766015 1.800818 -2.990172
C 5.064809 7.260210 10.194546
H 7.552757 -7.898190 5.746834
F 7.863952 3.607456 -1.140928
C 5.140789 5.879482 10.137076
H 8.028037 -7.991824 7.271480
F 5.671357 3.065642 0.305839
H 5.339631 -6.207709 5.510086
C 4.356738 7.989041 11.331786
H 4.175679 -7.265525 5.807784
C 2.921197 8.333463 10.841401
H 5.404295 -7.670430 4.864057
C -5.748631 -5.229356 -9.066816
C 5.058343 9.277400 11.717626
H 5.879576 -9.616508 6.299163
C -6.286959 -5.977925 -8.040909
C 4.313090 7.116216 12.577222
H 4.604078 -9.186296 7.166036
C -6.222295 -7.365739 -8.031671
H 5.966872 -9.596263 7.898621
C -5.598287 -7.991318 -9.112340
H 7.328049 -4.097139 11.059176
H 8.760357 8.591591 8.021342
H 8.666595 -2.391474 12.189954
H 7.644903 9.654468 8.450611
H 8.763591 0.225229 12.096973
H 8.414405 9.821491 7.058515
Ni -5.860338 -0.289508 -8.921506
C -6.791338 -8.186685 -6.883422
H 8.726409 2.844462 12.232432
H 6.291809 9.707612 5.722374
H -1.039474 -0.101226 -3.101929
H 7.444445 4.608332 11.095747
H 5.737315 9.826553 7.218598
H -4.290457 -4.679190 -6.855972
H 4.547497 -4.552657 10.987550
H 5.048643 8.814289 6.185850
H -3.428809 -2.948219 -5.342827
H 8.191314 6.840374 6.426424
H -3.299481 2.280125 -5.365051
H 8.226879 8.146195 5.497546
H -4.026951 4.031341 -6.947906
C -4.309857 -0.526630 -1.450350
H 7.093642 7.037765 5.278114
H 1.922138 -7.045357 12.328806
C -5.522307 -0.617734 -2.173515
C 5.131090 3.064882 7.997628
H 2.036916 -7.106093 10.733542
C -5.255568 -0.535488 -3.501142
C 4.408469 3.741581 6.947260
H 2.305272 -5.729414 11.501728
C -3.842659 -0.404146 -3.648602
C 3.938038 2.802200 6.132146
H 3.983303 -6.817598 13.742759
C -3.139438 -0.326202 -4.854350
C 4.338955 1.525482 6.661945
H 4.353505 -5.476348 12.950056
C -1.755628 -0.198151 -4.989586
C 3.960671 0.321900 6.116759
H 5.413995 -6.670820 13.041321
C -1.081506 -0.095659 -6.274684
C -0.205308 -0.160950 5.997446
C 4.264592 -0.890033 6.676453
H -4.877283 8.282850 -9.465889
H 3.550054 -8.862371 12.615142
C -0.336253 -0.195873 4.548599
C 3.802244 -2.148277 6.161383
H -6.295042 5.116995 -7.400787
H 4.977513 -8.799105 11.893807
C -1.543853 -0.511446 3.882751
C 4.211244 -3.101071 7.011575
H 3.650284 -9.009150 11.025990
C -1.833225 -0.316839 2.534287
C 4.977513 -2.457271 8.039536
C -1.049174 0.365427 1.492405
C 5.622536 -3.131945 9.060096
C -1.778260 0.300136 0.359510
H 4.768971 5.364999 10.842501
C -3.023043 -0.386179 0.705184
H 2.436217 8.801635 11.552536
C -4.175679 -0.610142 -0.068705
H 2.445916 7.508468 10.611009
C -2.599493 -1.164610 4.720593
H 2.976161 8.910454 10.050214
C -2.352154 -2.342885 5.378990
H 4.574979 9.702550 12.454990
C -3.291398 -3.004400 6.135577
H 5.077742 9.882227 10.945677
C -4.539414 -2.469924 6.251751
H 5.974955 9.077477 12.000026
H -6.715358 -5.532023 -7.317366
C -4.859501 -1.295698 5.598681
H 3.860442 7.599572 13.300098
H -5.532006 -8.938291 -9.119609
C -3.894390 -0.642788 4.873058
H 5.226469 6.893518 12.856005
C -6.456702 2.487639 -9.943199
C -5.418844 -0.951022 0.705718
C 5.798745 3.717286 9.015011
C -7.294101 3.160541 -10.901143
H 3.823260 6.288690 12.381432
C -5.928074 -0.053397 1.652246
C 5.431777 -4.622757 9.170308
C -8.008638 2.237863 -11.521227
C -7.024129 -0.342651 2.418635
C -7.612571 0.955071 -10.997463
C -7.670769 -1.533580 2.267242
C -8.076535 -0.241172 -11.442506
C -7.232670 -2.437785 1.322559
C 5.021161 -7.345747 9.390747
C -7.635204 -1.473856 -11.021148
C -6.104283 -2.133853 0.571981
C 5.624153 -6.854546 8.243838
C -8.071686 -2.718435 -11.557147
C 5.848860 -5.474324 8.161421
C -7.389480 -3.674518 -10.928454
C 6.031536 -7.743820 7.069443
C -6.553698 -3.033502 -9.955021
H -6.385571 -0.721238 -1.789822
C -4.825552 5.142554 -10.295286
H -5.892508 -0.561807 -4.203343
C -4.613777 6.516449 -10.443043
H -1.472723 -0.192330 -7.135513
H -0.902063 -0.296087 6.628419
C 5.748631 5.229356 9.066816
H -0.197225 0.771851 1.596662
C 6.286959 5.977925 8.040909
H -1.530921 0.635196 -0.493276
C 6.222295 7.365739 8.031671
C -5.064809 -7.260210 -10.194546
C 5.598287 7.991318 9.112340
C -3.886307 7.059782 -11.666440
C -2.403885 6.703718 -11.546900
Ni 5.860338 0.289508 8.921506
C 6.791338 8.186685 6.883422
C -4.461817 6.450652 -12.969447
H 1.039474 0.101226 3.101929
C -4.028568 8.566031 -11.813340
H 4.290457 4.679190 6.855972
C -7.425045 7.533775 -6.647947
H 3.428809 2.948219 5.342827
C -5.137556 7.156706 -5.654447
H 3.299481 -2.280125 5.365051
C -5.582121 9.155928 -7.112179
C 4.309857 0.526630 1.450350
H 4.026951 -4.031341 6.947906
C -8.044203 -9.176173 -7.696558
C 5.522307 0.617734 2.173515
C -5.897358 -9.214133 -6.469641
C 5.255568 0.535488 3.501142
C -7.644903 -7.498346 -5.945538