12
H5 C6 Cl1
Cl 1.924249 -0.363747 -0.842369
C -1.593438 -0.892176 0.835606
C -0.370913 -1.132871 0.307802
H 0.458214 1.939773 -0.402800
H -1.670624 2.318008 0.493747
C 0.381028 -0.055933 -0.160460
H -3.015154 0.576751 1.267454
C -0.069887 1.213562 -0.093253
H -2.098882 -1.625264 1.164775
C -1.343954 1.426749 0.447647
H -0.032290 -2.018628 0.257605
C -2.149177 0.414454 0.915785