243
Mn1 P1 H119 C114 N7 O1
H 5.504156 0.420969 2.188420
Mn 0.346683 0.371912 -0.575064
P -1.940302 -1.144147 1.576255
C 5.199090 -8.095439 -0.325041
N 1.827855 -0.561512 0.086583
H -0.516266 9.570413 5.808473
N 1.159744 1.742817 0.413898
H 1.853474 -4.572080 0.724107
H -0.737060 7.991185 5.936163
N -0.274067 3.579762 -0.092486
H 2.731593 -6.709078 0.741956
H 5.566518 4.658005 4.480821
H 0.736022 8.575835 5.713630
N -0.708408 1.640671 -1.483162
H 0.171397 9.728336 2.390075
H -0.263449 10.595231 3.664060
C -0.212886 8.691421 5.495887
N -1.724396 0.120244 -3.078759
N 0.017515 -0.993616 -1.823593
C 0.216904 9.794529 3.367725
H 1.154013 9.852658 3.646626
C 2.079324 -1.875296 -0.030851
N 1.543352 -2.670958 -0.982029
C -1.930358 8.546266 3.701049
H 4.283891 -8.076622 -0.676893
C 4.631094 -6.208765 1.204374
H -2.090475 8.451513 2.740018
H -2.321382 7.782861 4.175986
C 5.430333 -5.100953 1.489553
H -2.344978 9.375529 4.019784
O -1.015665 -0.206354 0.879847
C 4.917957 -3.804306 1.465602
C 5.190662 -7.649223 1.142564
C 0.727595 3.000151 0.595638
C 6.608125 -7.720456 1.657845
C -0.944202 2.929926 -1.049491
C -2.066542 3.447711 -1.805126
C -2.503747 2.435325 -2.648206
C 4.965149 -1.988866 4.944883
C -1.628494 1.302985 -2.451699
C 6.173785 -1.291317 4.902350
C -0.919089 -0.920031 -2.820858
C 3.029917 -2.216006 0.999561
C 6.333228 -0.365957 3.867789
C -0.921785 -2.196517 -3.520352
C 3.303803 -1.048385 1.729955
C 5.371680 -0.218450 2.877187
H 4.246811 -8.362228 2.837370
C 0.021223 -2.995540 -2.911721
C 2.519226 0.011378 1.144941
C 7.300170 -1.623963 5.886086
H 3.377120 -8.570551 1.509613
C 2.123652 1.382283 1.333819
C 0.612141 -2.235494 -1.819911
C 2.342423 2.545535 2.170357
C 1.476271 3.548849 1.709041
C 4.848011 3.115737 5.594941
H 3.206889 -2.327560 4.041859
H 0.827036 5.844106 0.525510
C 4.946778 3.938616 4.474419
H -2.029799 5.205695 0.221436
H -2.800049 7.379654 0.317745
C 5.724950 3.393614 6.823597
H -3.949525 7.161250 -3.536282
H 2.576532 1.096341 4.395106
H -3.196130 4.980571 -3.643012
H 3.865900 1.476028 6.279881
H -5.016414 3.095577 -2.153895
H -6.922657 2.850293 -3.444857
H -4.697864 1.365146 -6.449139
H 4.255238 4.315279 2.612116
H -2.779824 1.620511 -5.178146
H 1.388290 4.379120 4.259659
C 3.585610 -3.578174 1.154659
C 2.777269 -4.695394 0.907357
H -1.723048 -0.708011 -5.591577
H 0.579275 6.354835 5.138332
C 3.302454 -5.971881 0.925850
H -3.302313 -1.148179 -7.231140
H 0.051730 7.823182 1.432870
H -3.861882 -4.827444 -5.707107
H -2.277560 -4.404077 -4.064614
H 0.655120 -3.990789 -5.293554
H 1.454023 -6.077387 -5.876032
H 1.234915 -7.253408 -2.027897
H 0.488261 -5.150010 -1.426257
C 4.280520 -8.612552 1.889280
H 1.061313 -8.241265 -6.308893
C 4.220687 -0.992944 2.879766
H 1.410201 -9.726412 -5.818394
C 4.020624 -1.841359 3.974475
H 0.162969 -8.946878 -5.185158
H 3.988938 -7.720456 -4.324067
H 3.749604 -8.950238 -5.320542
H 3.368693 -7.461731 -5.775333
H 1.147271 -9.343365 -2.889397
H 2.320344 -10.143059 -3.627717
C 3.252228 2.675906 3.314105
H 2.674288 -8.953598 -2.618440
C 3.172843 1.836563 4.412580
H -3.093317 1.213943 0.524391
H -5.274288 1.983397 0.173921
C 3.948824 2.057655 5.534940
C -2.554817 4.835080 -1.712006
H -7.092887 0.689774 0.815382
C -2.436161 5.591094 -0.545321
H -6.755797 -1.406903 1.784818
H -4.591681 -2.193157 2.124868
C 4.169281 3.733652 3.358830
C -2.900165 6.890093 -0.489721
H -3.133768 -2.441802 -0.652353
C -3.509455 7.501288 -1.580475
C 1.169182 4.870697 2.289693
H -3.221411 -4.625841 -1.439319
C -3.578558 6.761067 -2.759046
H 8.096376 -3.174295 4.772598
C -3.122307 5.460387 -2.825677
C 1.102270 5.068268 3.672084
H -2.065194 -6.322671 -0.342383
H 8.490771 -3.258296 6.321164
H -0.799422 -5.822022 1.552909
C 0.623434 6.256722 4.194859
C -4.069192 8.920913 -1.467047
H 7.019374 -3.674944 5.847070
C -3.694011 2.374508 -3.514269
C 0.206285 7.309092 3.391777
H 8.173906 0.232806 5.955791
C -4.942423 2.736723 -3.030065
C 0.309603 7.117569 2.015576
H 9.114387 -0.919695 6.543932
C 0.774956 5.934492 1.469362
C -6.081281 2.585520 -3.798933
H 8.923931 -0.771852 4.961209
C -6.018750 2.051270 -5.088866
C -0.405027 8.593979 3.970376
H 5.925518 -2.085635 7.428930
C -4.771518 1.713584 -5.569309
H 7.375004 -1.716029 7.999513
C -3.621874 1.865123 -4.812561
H 6.400815 -0.556808 7.478794
C -1.848276 -2.506987 -4.626891
H -2.429251 9.506572 -0.184603
C -2.164130 -1.549370 -5.601674
H -2.068565 9.698095 -1.732353
C -3.110677 -1.812463 -6.579726
H -3.020843 10.753154 -0.998155
C -3.783003 -3.023764 -6.628957
H -4.579883 8.747198 0.506358
C -3.437149 -3.979029 -5.681640
H -5.333279 9.950099 -0.234237
C -2.488241 -3.728369 -4.697382
H -0.721891 -3.637983 2.351668
H -5.796777 8.441433 -0.486480
H -3.034327 -2.344360 4.002139
C -4.890006 -3.335578 -7.643959
H -4.869780 10.363387 -2.655382
C 0.471744 -4.343596 -3.285951
H -2.238795 -2.609805 6.164322
H -3.706821 9.530092 -3.372103
C 0.777147 -4.650033 -4.620235
H -0.167379 -1.732829 6.765785
H -5.156306 8.878240 -3.183623
C 1.251601 -5.897960 -4.965428
H 1.081539 -0.529928 5.214284
H 0.275894 -0.240962 3.040357
C 1.442225 -6.905641 -4.011563
C 1.130585 -6.591140 -2.700180
C 0.670458 -5.334141 -2.339951
H 5.824391 1.449148 7.564508
C 1.986456 -8.273186 -4.447931
H 6.089007 2.554607 8.693317
C 1.072606 -8.848764 -5.539103
H 4.599070 2.279083 8.175788
C 3.401390 -8.084015 -5.018768
H 7.329497 4.090155 5.693995
C 2.036514 -9.267428 -3.292295
H 7.766028 3.623107 7.161717
C -3.624571 -0.564200 1.373635
H 7.449164 2.531087 6.037282
C -3.833061 0.679694 0.784176
H -6.509722 -3.002932 -6.387614
H 4.422098 4.785687 7.669188
C -5.131025 1.134646 0.577693
H -6.867037 -3.967269 -7.611984
H 5.944058 5.034332 8.094127
C -6.210049 0.365864 0.953519
C 7.767713 -3.060053 5.688374
H -6.022627 -4.528399 -6.373411
H 5.441794 5.450979 6.633428
C -6.011840 -0.875678 1.530679
C 8.480658 -0.687850 5.832800
H -4.278188 -2.028514 -9.134315
C -4.726180 -1.338694 1.734281
C 6.692397 -1.480825 7.335244
H -5.806890 -2.475402 -9.293142
C -1.939291 -2.829889 0.950370
H -5.400696 -1.400183 -8.182323
C -2.666899 -3.129942 -0.192863
H -4.198972 -5.338174 -7.843576
C -2.712406 -4.425581 -0.662706
H -5.048438 -4.864405 -9.114500
C -2.026428 -5.432927 -0.015967
H -3.541647 -4.363756 -8.927835
C -1.281460 -5.137242 1.106794
C -1.239661 -3.837571 1.581287
C 5.542921 2.322763 7.913981
C 7.201403 3.411423 6.389944
C 5.349095 4.792407 7.353809
C -2.766340 9.808977 -1.054008
C -5.028212 9.022723 -0.321592
C -4.485498 9.469611 -2.779866
H 5.554719 -9.007359 -0.388980
H -7.883362 0.232806 -4.997958
C -1.456241 -1.274181 3.297669
H -8.506978 1.526429 -4.291022
H 5.762030 -7.488612 -0.849423
C -2.194299 -1.973745 4.243809
C -6.189486 -3.745505 -6.940838
H -9.105312 1.008980 -5.681863
C -1.722205 -2.134356 5.525276
C -5.114170 -2.209958 -8.654395
H -8.110898 3.794470 -5.233765
C -0.498232 -1.606827 5.883976
C -4.369202 -4.595600 -8.461338
H -7.286713 3.959113 -6.593998
C 0.242691 -0.901214 4.965322
H -8.749683 3.310621 -6.618625
C -0.235471 -0.730859 3.671708
H -7.895160 1.331546 -7.784752
H -6.427135 1.966597 -7.790539
H 6.345195 -5.234012 1.705546
H -6.661412 0.501611 -7.195350
H 5.487301 -3.070133 1.664112
C -7.303568 1.999862 -5.904199
C -8.287870 1.113142 -5.151945
C -7.917071 3.392270 -6.105415
C -7.049065 1.395387 -7.295765
H 4.627723 -9.524808 1.801497
H 6.633406 -7.411331 2.586508
H 6.924989 -8.647833 1.613286
H 7.184548 -7.152606 1.105319
H 4.797953 -2.579564 5.669299
H 7.115445 0.172325 3.841309