220
Cr1 H110 C100 N9
Cr 0.287485 -0.102174 -0.183513
H -0.342708 -2.191424 4.927197
H -0.995653 -3.625207 6.615545
H -1.899944 -5.715997 7.189600
H 1.210462 2.417896 -8.027980
H 4.062303 4.390630 -5.950380
H -1.819562 -3.917780 8.834191
H 3.683316 3.016731 -4.123329
H 2.561814 6.582367 -8.630742
H 2.791112 6.200823 -7.093602
H 1.396825 5.862053 -7.801801
H 2.406103 4.767041 -10.338699
H 1.260819 4.053571 -9.478053
H 2.568050 3.235733 -9.905005
H 4.785075 3.807193 -8.856383
C -1.531822 1.921547 0.543416
C -2.146451 3.126403 0.067049
H 4.860798 5.021973 -7.816422
C -1.612267 3.399472 -1.187815
H 4.559308 5.307703 -9.363144
C -3.251165 1.412879 3.639902
C -2.976313 1.706137 4.973963
C -3.914864 2.333374 5.771291
C -5.163181 2.695755 5.282687
C -5.414136 2.450062 3.943128
C -4.466833 1.824022 3.128380
H 4.899150 1.262999 1.291940
C -6.174313 3.340102 6.251546
H 4.261509 1.257866 2.759351
H 4.175741 2.575304 1.852183
C -6.336174 2.414474 7.490794
C -7.551970 3.453025 5.661543
C -5.640609 4.690047 6.680107
C -3.093827 4.005493 0.784202
C -2.778007 4.516043 2.032628
C -3.566594 5.480168 2.640293
C 4.161797 1.595096 1.844046
C -4.693441 5.980110 2.020795
C -5.051232 5.417033 0.796993
C -4.268675 4.442130 0.180339
C 6.222727 -3.822480 -7.629405
C -5.531713 7.113619 2.631950
C -4.892259 7.694831 3.897384
C -6.903355 6.560124 3.010270
C -5.675976 8.238574 1.591814
C -1.959428 4.594576 -2.004680
C -0.637049 2.369476 -1.494210
C -1.702209 5.877623 -1.503193
C -2.104250 7.010106 -2.188693
C -2.605643 4.504409 -3.222044
H -3.148523 -1.767107 -3.470419
H -3.830936 -2.405294 -2.171396
H -2.652727 -3.187202 -2.923330
H 0.831927 1.040575 -6.193272
H 3.835705 -3.739841 -2.129654
C -2.989975 -2.303492 -2.665709
H 5.670724 -5.041880 -2.679723
H 5.432773 -6.899980 0.873628
H 3.592436 -5.621894 1.438387
H 7.818217 -5.722841 -2.709962
C -2.807864 6.920794 -3.389709
H 6.930067 -6.899980 -3.331850
C -2.272413 0.595384 2.872227
C -3.023695 5.637405 -3.899409
C -1.607048 0.911055 1.640621
H 8.397854 -7.213085 -2.774147
C -3.381092 8.161409 -4.093115
H 7.697167 -6.961574 0.674798
C -2.812979 9.458829 -3.554347
H 8.328219 -5.779302 -0.199994
C -3.123228 8.105119 -5.589618
H 7.393329 -9.018145 -1.436098
H 5.096063 0.571772 -4.276343
C -4.899250 8.182112 -3.837223
H 6.789119 -0.665250 -5.299368
H 5.922478 -8.631469 -1.933784
H 0.846999 -6.263503 0.791123
H 4.276981 -3.794591 -5.694828
H 0.250819 -7.938531 2.272752
H 2.624589 -2.603765 -4.584090
H 1.118550 -5.520948 5.378321
H 6.247438 -8.691352 -0.368090
H 1.688453 -3.816834 3.901352
H 5.452045 -4.383161 -7.400549
H 1.827730 -9.278211 4.580061
H 6.911609 -4.372895 -8.056492
H 0.601075 -9.582761 3.597808
H 5.939631 -3.115341 -8.246480
H 0.553271 -10.087494 5.115247
H 7.698229 -1.621675 -7.358335
C -2.193059 -1.455370 4.466989
H 1.544592 -7.664778 6.460084
H 0.276179 -8.501436 6.960755
H 7.626443 -3.883561 -4.591863
H 0.141155 -6.930777 6.684232
H 7.910488 -4.848541 -5.836443
C -2.989434 -3.262141 6.516752
H -1.610925 -8.941152 5.444370
C -3.910821 -2.437460 5.870234
H -1.565561 -8.463795 3.918296
C -3.529727 -1.545538 4.880299
H -1.770738 -7.389314 5.086689
C -3.396498 -4.314723 7.569961
H 6.465561 -4.836565 -5.146091
C -2.795329 -3.960554 8.913387
C -4.896661 -4.425935 7.708755
H 8.652693 -2.898050 -7.210781
H 8.396225 -1.939913 -5.955198
C -2.010208 -1.636561 -1.822502
C 2.886402 1.131084 1.288879
C -0.792162 -1.086830 2.342428
C -1.785296 -0.634453 3.308760
H 8.850640 -7.281523 -0.386335
C 1.034469 1.206367 -2.701963
C 2.203601 1.882537 -4.961620
C 1.489286 1.724274 -6.135504
C 2.636772 -0.196961 -3.533213
C 1.717505 2.550153 -7.234815
C 2.124533 -0.729411 -2.279805
C 2.673834 3.567488 -7.194759
C 2.024593 -2.373812 -0.548514
C 3.399038 3.713091 -6.007656
C 2.379750 -3.642658 0.116458
C 3.173323 2.893029 -4.915849
C 1.561104 -3.744974 1.230167
C 2.915253 4.548380 -8.354496
C 0.766274 -2.531563 1.317113
C 2.365820 5.923477 -7.931739
C 2.226896 4.112770 -9.631926
C -1.262600 -2.250110 5.155496
C 4.414595 4.683204 -8.621429
C -1.656182 -3.116368 6.158310
H -3.225886 10.214730 -4.021297
C -2.878936 -5.702309 7.138086
N -0.622148 1.543767 -0.420018
N 0.172169 2.236021 -2.578301
H -5.295019 8.960598 -4.281847
C 1.981117 0.991299 -3.788610
H -2.131191 1.471736 5.339715
H -5.068119 8.235152 -2.872796
H -3.699556 2.522264 6.678185
H -6.248255 2.712180 3.571086
H -4.662755 1.678762 2.209817
H -5.505691 2.414474 8.009808
H -6.532961 1.500822 7.192148
H -7.071068 2.741267 8.048555
H -8.180496 3.745599 6.353135
H -7.830948 2.578726 5.315403
H -7.541815 4.104900 4.930232
H -5.551463 5.271773 5.896900
H -4.763666 4.577124 7.103377
H -6.260278 5.098966 7.319866
H -2.004956 4.197292 2.481271
H -3.326202 5.803881 3.499895
H -5.850594 5.704645 0.370981
H -4.537924 4.075814 -0.653963
H -4.791361 6.986153 4.566074
H -5.464546 8.404537 4.257092
H -4.010943 8.065767 3.678269
H -7.360307 6.238464 2.205818
H -7.437149 7.268461 3.427554
H -6.793838 5.819280 3.643546
H -4.786582 8.558523 1.330868
H -6.189596 8.977707 1.979398
H -6.142716 7.894671 0.801759
H -1.242471 5.971555 -0.676950
H -1.896964 7.867296 -1.832636
C 3.490079 -4.530988 -0.285440
C 4.149527 -4.385043 -1.506693
C 5.255753 -5.163529 -1.834490
C 5.767964 -6.111057 -0.964103
C 5.112738 -6.255462 0.254168
C 4.008019 -5.492033 0.593845
C 7.011756 -6.957981 -1.277043
C 7.590039 -6.674133 -2.643371
C 8.066401 -6.723751 -0.200502
C 6.605715 -8.464650 -1.250697
C 1.332181 -4.854701 2.178409
C 0.901538 -6.099765 1.724990
H -3.468356 5.540393 -4.732000
C 0.550272 -7.103070 2.612614
H -2.767032 3.648074 -3.601870
C 0.624875 -6.915036 3.992856
H -1.842987 9.475596 -3.697969
H -3.001088 9.523503 -2.594397
C 1.057120 -5.677500 4.442730
C 3.683764 -0.887846 -4.314428
C 1.402600 -4.656572 3.560082
H -3.418410 8.943488 -6.002955
C 4.925718 -0.322716 -4.548052
H -3.620210 7.357430 -5.979595
C 0.190212 -8.047690 4.938544
H -2.165290 7.980219 -5.751974
C 5.932711 -1.059968 -5.181526
C 0.853489 -9.368720 4.519979
C 5.715549 -2.352083 -5.642820
C 4.458029 -2.908144 -5.401363
C 0.572887 -7.760249 6.391536
C 3.465994 -2.194162 -4.743905
C -1.326053 -8.225972 4.837602
C 7.991968 -2.335487 -6.755152
H -4.826731 -2.489131 6.116603
C 7.238662 -4.286834 -5.396068
C 6.791591 -3.187886 -6.350528
H -4.182838 -0.986910 4.475755
N -0.738395 -0.139130 1.398762
H -3.160466 -5.883671 6.218446
H -5.301859 7.362563 -4.196057
H -3.247067 -6.388403 7.734174
N 1.185931 0.146599 -1.829531
N 2.520929 -1.876950 -1.694488
H -3.040629 -4.644937 9.571565
H -3.137851 -3.089677 9.205350
N 1.067946 -1.775661 0.214845
H -5.114164 -5.132560 8.352553
N -0.088539 -2.243608 2.302475
H -5.289980 -4.646648 6.838714
H -5.260335 -3.573878 8.023567
N -1.223385 -1.074169 -1.195186
N 1.904237 0.770072 0.832399