12
H6 C6
H 0.849031 -1.773944 -1.270067
C -0.316599 1.204435 -0.579550
C 0.162068 0.157490 -1.343264
C 0.501411 -1.058476 -0.751305
H 0.537277 -2.010245 1.040737
H -0.319357 -0.239627 2.256138
C 0.317945 -1.194678 0.604422
H -0.815957 1.741036 1.274821
C -0.482132 1.027209 0.745127
C -0.181413 -0.137886 1.321526
H -0.527653 2.038053 -0.983913
H 0.261388 0.267436 -2.281445