12
H6 C6
C 1.146135 -0.294311 0.689896
C 0.507071 0.895639 0.918498
C -0.645321 1.194581 0.233376
C -1.157012 0.298401 -0.684843
C -0.503545 -0.903832 -0.924304
H 1.109969 -2.008315 -0.392800
H 1.937328 -0.503260 1.171833
H 0.859272 1.512530 1.549525
H -1.090000 2.019387 0.392015
H -1.956722 0.505282 -1.153430
H -0.851035 -1.520853 -1.557636
C 0.651932 -1.190879 -0.233421