375
Ni3 H184 C174 N12 O2
H -2.676253 -7.320885 -1.907934
H -6.646581 -7.782944 -2.509667
C 6.446111 -6.438373 8.054851
H -8.487934 -6.926711 -3.133714
H -8.605214 -6.563195 -1.578832
H -5.695414 -9.558918 -3.744068
H -4.869245 -10.885970 -3.402426
H -4.150900 -9.668410 -4.152241
C 8.342521 -5.177016 9.195758
H -6.348411 -9.661841 -1.479863
H -5.291336 -9.554538 -0.283548
H -5.362001 -10.883781 -1.172745
Ni 0.365170 -2.991320 -1.521544
Ni -1.110584 3.476201 -5.848833
Ni 0.897474 -1.810988 6.381938
H -5.086305 -4.060189 -2.285281
H -3.507046 -4.086467 -4.515512
H -3.176673 -5.858061 0.564400
H 4.248002 -0.812632 -3.837210
H -3.191766 -4.502540 5.490792
H -4.152849 -0.098739 -7.598935
H 3.649638 1.955346 -5.249472
H -2.990654 -9.304894 -0.748929
H -2.436482 -9.497602 -2.237212
H -4.089006 1.679424 -9.871952
H -2.213717 7.445315 -2.762800
H -3.153114 -10.717352 -1.487773
H -6.958903 -3.401042 -1.715685
H -7.679252 -4.425895 -0.720494
H -8.541585 -3.617838 -1.799342
H -3.851012 11.122083 -3.236829
H -4.788054 -2.542619 6.185897
H -8.061572 1.394743 -10.432882
H 2.291101 7.169393 -5.317512
H -3.125227 8.787697 -6.461714
H 0.088491 8.213954 -4.829631
H -6.812627 -3.981354 -4.209591
H -8.395958 -4.202530 -4.231471
H -7.418058 -5.371913 -4.716460
H -9.467547 -5.755138 -2.657680
H -6.670036 2.741504 -6.913896
H -4.459616 10.933756 -1.015392
H -3.004203 11.584143 -1.153588
H -3.455677 10.916237 0.229189
H 3.808072 0.989619 9.386476
H -3.650492 12.777615 -4.688995
H -4.057173 13.250623 -6.163096
H -2.638022 12.556439 -5.907767
H -5.677054 4.959828 -7.496752
H -6.133387 10.432279 -5.705195
H -6.147796 11.984887 -6.092682
H -5.808859 11.535966 -4.594194
H 4.088699 4.478060 -3.965358
H -4.866993 6.865003 -6.132577
H 1.546070 3.214513 8.317672
H -8.028611 -2.658681 4.956191
H -6.514637 -3.166728 4.847780
H -6.840442 -1.763030 5.546789
H -4.779473 8.459218 -0.893089
H -3.830133 8.430750 0.396289
H -3.499753 7.497872 -0.861959
H -1.154654 8.597179 -1.061466
H -1.488369 9.521299 0.198821
H -1.037220 10.187015 -1.184555
H -8.658898 -4.780652 6.016775
H -7.148493 -5.312787 5.976402
H -4.487606 10.016206 -7.548049
H -3.145053 10.881199 -7.645726
H -4.564205 11.575384 -7.898723
H 3.498909 5.159105 -7.801534
H -9.091838 4.204328 -9.227717
H -8.570975 4.460541 -7.737334
H -10.131803 4.226227 -8.012026
H -9.915960 2.121775 -9.967401
H -10.982376 2.088927 -8.773406
H -10.021209 0.834139 -9.021013
H -7.318430 -0.451306 -11.535704
H -6.661987 -0.503863 -12.995235
H -7.634369 0.702748 -12.598007
C -3.535281 -6.944229 -2.054742
H -5.175346 -1.086364 -11.066255
H -3.940063 -0.079031 -11.206731
H -4.568710 -0.760076 -12.510617
H -8.518351 2.437114 -6.151443
H -9.132258 1.044366 -6.648150
H -10.093425 2.299153 -6.400542
C -5.895609 -7.211392 -2.400975
C -4.607997 -7.789514 -2.202329
H -4.359461 2.095497 -12.038441
H -5.664163 2.393317 -12.915101
H -4.691781 1.186706 -13.312328
H 5.863851 6.928509 -2.752958
H 5.174339 5.616785 -2.152516
H 2.138387 5.080270 7.725670
H 1.832521 6.646017 7.864527
H 0.632238 5.586127 7.918350
C -4.423265 -9.320223 -2.142602
H -0.066428 6.494917 10.184020
H 1.133532 7.552618 10.129598
H 3.504874 6.711713 9.838788
H 3.741879 5.135017 9.708167
C -8.610430 -6.199678 -2.488693
H 5.795204 5.750366 -10.455874
H 4.595222 5.091220 -9.629306
H 5.101458 8.314688 -7.893597
H 3.946555 7.519770 -8.666818
H 5.157464 8.170157 -9.485106
C -4.969126 -5.001827 -2.280852
C -6.083332 -5.838352 -2.441024
C -3.652520 -5.549291 -2.110055
C -1.897361 -4.636121 -0.626175
C 1.083358 -1.103883 -3.615552
C -1.166864 -1.975446 -3.872853
C -2.266092 -2.422177 -4.728624
C -0.622315 -3.979164 1.111401
C -2.808129 -3.549953 -4.157792
C -2.448710 -5.249281 0.540430
C 3.345023 -1.007530 -3.618596
C 2.214587 -0.372471 -4.118530
C -2.106426 -3.764558 -2.901741
C 1.957933 0.851658 -4.804021
C 0.468582 -3.506155 1.801586
C 3.166092 -3.136070 -0.585563
C -2.487827 -4.647070 -1.900087
C -7.474012 -5.185775 -2.640723
C -1.750874 -4.802550 1.602631
C 2.882934 -2.008294 -2.712308
C -4.820592 -9.911484 -3.477114
C -1.704416 -4.200340 4.065147
C -0.226463 -0.950593 -4.152163
C 0.552707 1.199845 -5.063018
C -0.546033 -3.368194 4.202243
C 0.585132 -3.269651 3.291236
C 3.712736 -2.678390 -1.762437
C -0.473254 0.271346 -4.974746
C 3.878649 -3.249942 0.667325
C -5.447499 -9.907105 -1.184706
C -2.138558 -5.067523 3.009996
C 1.834470 -2.923654 3.837891
C 1.664459 -3.287170 1.075712
C -2.605501 -0.422838 -6.242757
C -0.796814 6.337248 -5.229121
C -1.668489 0.551648 -5.682894
C -2.759955 -1.863763 -5.982746
C -2.128706 6.589081 -5.245948
C -2.391405 -4.051430 5.254576
C 1.780208 2.993338 -5.535878
C 1.170056 5.351813 -5.594838
C -3.467111 0.280106 -7.061718
C -3.147573 -9.745055 -1.612102
C 2.700749 1.918118 -5.200550
C 2.981437 -3.295929 1.664357
C -3.059331 9.328591 -2.727649
C -1.714094 -3.138260 6.045200
C 3.048745 -3.157968 3.118508
C -2.619190 7.940222 -4.713951
C -6.061179 1.460438 -10.370042
C -4.976465 1.795486 -9.552821
C -3.166297 1.622488 -6.971764
C -2.572942 8.128550 -3.316787
C -7.683495 -4.055809 -1.626222
C -3.542470 10.303077 -3.602782
C -3.602097 10.134458 -5.003341
C -4.783126 -2.963071 7.039067
C -3.018046 5.743797 -5.816231
C -7.329691 1.631247 -9.873609
C 2.129688 4.320390 -5.724401
C -7.605322 2.108636 -8.652071
C 1.445085 6.740181 -5.320940
C -3.112932 8.925658 -5.519790
C 0.226838 7.305164 -5.071906
C -3.847852 3.994102 -6.944253
C 3.497047 -2.621454 5.249250
C -7.531106 -4.636121 -4.082133
C -5.188049 2.292584 -8.284145
C -3.988207 2.675808 -7.411474
C -2.969322 9.523488 -1.207335
C -2.287042 -2.536049 7.207772
C 4.111337 -3.013438 4.007807
C -4.192975 11.220627 -5.908234
O -2.919933 -6.022957 3.250814
C 2.226842 0.067690 8.309534
C -6.512043 2.432734 -7.799406
C 1.008505 0.645812 8.713556
C 3.552647 4.751792 -5.833984
C 4.232388 -2.196621 6.377590
C -7.303569 -3.403232 6.791979
C 3.644525 -1.351337 7.316599
C -0.238504 0.109297 8.411950
C -1.684816 -1.469589 7.843014
C -3.521490 10.857111 -0.744976
C 4.447027 -0.569558 8.287775
C 3.572432 0.293245 8.782126
C -3.581484 12.569578 -5.644669
C -4.852544 5.010195 -7.026542
H 5.951211 -6.519397 -3.435924
H 6.842424 -6.885103 -4.712330
C -5.713182 11.301652 -5.542034
C -9.026668 2.430545 -8.089250
C 4.413364 4.771501 -4.807878
C -4.391140 6.061326 -6.301170
C -5.799232 0.849468 -11.779132
C 1.372576 3.061223 9.238661
C 5.750513 5.187573 -4.867908
C -7.157760 -2.680580 5.405895
C -3.853807 8.367244 -0.581349
H 8.940438 -6.793129 -3.279090
C -1.539504 9.451223 -0.776545
H 8.049550 -6.425234 -2.002084
C -7.812317 -4.828828 6.510674
C -4.088516 10.894338 -7.380296
C 4.076229 5.205092 -7.047188
H 4.820903 -3.284980 0.769318
C -9.223715 3.974393 -8.284568
H 5.752796 -1.121402 -0.979649
H 5.060102 -4.489401 -3.071754
C -10.084295 1.810815 -9.053825
C 1.723572 5.649633 9.624974
C -6.949267 0.087398 -12.268114
C -4.768879 -0.392180 -11.626187
C -9.207569 2.021041 -6.710301
C 5.258815 5.678101 -7.249557
C -5.079656 1.690373 -12.567574
H 8.813359 -3.127310 -2.642216
H 5.035238 -3.144829 3.835695
C 6.021925 6.015339 -2.436717
C 1.569062 5.748176 8.159174
H 5.367970 -0.665912 8.502232
C 0.880350 6.641638 10.389338
C 3.176124 5.827011 10.108621
C 5.533271 5.371521 -9.591120
H 8.127373 -6.532537 6.233570
H 8.805570 -7.180734 7.529220
C 5.702984 6.420462 -8.506655
C 4.906170 7.725617 -8.650104
N -0.749352 -3.915221 -0.265585
N 1.815259 -3.177020 -0.324234
N -1.085125 -2.840001 -2.788849
H 5.302835 -4.281364 7.504912
N 1.509188 -2.080121 -2.711278
N 0.468480 2.515073 -5.489070
N -2.006882 1.815414 -6.164731
N -2.744946 4.424408 -6.237623
N -0.182873 5.131732 -5.560910
N -0.547358 -2.730946 5.446517
N 2.123540 -2.540429 5.143221
N 2.360395 -0.983441 7.360615
N -0.387444 -1.046947 7.605349
H 6.552803 -1.112643 5.341037
O -3.421047 -2.557510 -6.774039
H 7.715765 -4.305453 -5.471844
H 6.080676 -6.580713 7.154448
H 8.689247 -5.573380 -5.387931
H 9.071147 -4.220048 -4.626105
H 5.880751 -5.606227 -4.747800
H 6.981343 6.151110 -6.156091
H -6.714080 -4.485021 9.185983
H 9.244029 -5.459507 -2.449352
H -2.768620 -3.764558 9.490032
H 9.206249 -3.817115 6.555707
H 10.325842 -1.294401 6.825675
H 9.303911 -0.092170 6.560871
H 10.658521 -0.190713 5.714703
H -4.923772 -6.758092 10.127317
H -4.275335 -6.782180 11.589864
H -3.385468 -6.359538 10.329893
H -1.595235 1.059695 9.675696
H 7.466088 3.757597 -2.315699
H -3.226473 -0.639634 9.069297
H 7.311785 3.183855 -3.800801
H 6.024142 3.321816 -2.860109
H 8.194576 -1.143301 3.391814
H 9.371798 -0.087790 3.642207
H 8.017188 0.010754 4.486042
H 6.643927 6.032858 -1.680110
H 7.930891 6.783978 -4.138775
H -7.955117 -5.297458 7.358443
H 8.624514 5.373711 -4.437331
H 8.527409 5.914606 -2.934804
H 9.757759 -3.079133 3.846853
H 10.560903 -3.131690 5.230508
H 10.976417 -2.073989 4.102834
H 9.425716 -5.855871 6.880189
H 1.171093 4.657628 12.074654
H -9.185401 -2.586416 7.184270
H -7.998908 -1.743321 7.849772
H -8.462777 -3.127310 8.505483
H -3.921194 -3.416371 11.950633
H -2.803556 -4.412756 11.390374
H -3.691386 -4.835398 12.652903
H 6.096881 4.596312 -9.388148
H 9.744048 -1.233085 -2.564415
H 10.093692 -0.028664 -1.569294
H 0.420796 0.777203 11.343918
H 8.999163 0.174993 -2.717590
H 8.388093 -1.679815 0.671832
H 9.581706 -0.637444 0.449483
H 9.681149 -2.111217 -0.164289
H 7.088928 -0.162245 0.152136
H 7.365747 0.866987 -1.042504
H 8.460277 0.663331 0.108124
H 7.504500 7.357721 -7.979902
H 7.431551 7.002964 -9.539533
H 7.718965 5.848910 -8.468716
H -6.174558 -3.979164 11.787727
H -5.782435 -5.347824 12.520898
H -6.598236 -5.380672 11.141824
C 5.186406 -2.757225 -1.990928
C 6.468250 -6.151502 -4.184369
H 1.027865 6.523386 11.350131
C 8.537738 -6.059528 -2.768274
H -1.188704 1.053125 12.774459
H -1.028048 1.147289 14.362912
H 0.146149 0.518800 13.476868
H 3.207553 5.750366 11.083649
C 6.076267 -1.839675 -1.509257
H 1.266846 4.066367 13.887473
H 1.860163 2.625442 14.251031
H 0.685965 3.253930 15.139407
H -1.993284 3.240791 13.137504
C 5.670683 -3.847773 -2.727017
H -0.987973 4.456161 13.412451
H -1.442598 3.505764 14.617110
C 7.433798 -1.918510 -1.764565
C 8.596037 -6.339829 7.072047
C 7.039268 -4.003253 -2.958874
C 7.881256 -3.037526 -2.481734
C 5.694053 -2.603935 6.454974
C 8.410784 -0.880518 -1.235236
C 7.587414 -5.295268 -3.651201
C 5.993692 -3.757989 7.114288
C 6.753500 -1.903181 5.826543
C -5.984426 -3.479877 7.559298
C 8.332491 -4.804740 -4.895667
C 8.071331 -2.332393 5.891733
C -4.280210 -6.320120 10.726431
C 6.132874 5.732848 -6.079995
C 6.652107 5.139396 -3.628532
C -5.922716 -4.108366 8.822289
C 8.322304 -3.471118 6.542628
C 9.942474 -0.705329 6.142123
C 9.249530 -1.517766 5.126158
C 6.884277 3.722560 -3.105040
C 7.299441 -4.158733 7.208808
C -4.737310 -4.193770 9.556258
C 8.655752 -0.602406 4.067294
C -3.576606 -3.057235 7.749784
C 8.071275 5.875188 -3.802365
C 10.224073 -2.544809 4.521207
C 7.702780 -5.479216 7.969628
C -3.584170 -3.685724 9.007460
C 9.377429 -0.462255 -2.079673
C 9.073634 -1.371046 0.043376
C -4.661822 -4.949271 10.916323
C 7.776704 0.216600 -0.434687
C 7.231355 6.683245 -8.634064
C 1.146933 1.799866 9.639722
C -1.439166 0.339232 9.075728
C -2.331389 -0.580508 8.754174
C 1.363366 4.153961 10.093072
C 1.071084 3.941545 11.459205
C -8.332292 -2.645542 7.662073
C -3.691627 -4.355820 11.799162
C 0.690315 1.633437 11.032220
C 0.654851 2.741504 11.908676
H 8.551315 -6.009161 9.669101
C -5.903267 -4.912043 11.649553
C -0.555380 1.202035 13.507868
C 0.057824 2.548797 13.365202
C 1.049186 3.175096 14.230854
C -1.219715 3.538612 13.663535
H 5.761066 -6.028870 8.623570
H 6.717924 -7.298986 8.436847
H 7.749559 -4.627362 9.747788
H 9.173174 -4.686488 9.017363