13
H8 C4 O1
H 1.683845 0.611471 0.669866
H 1.833315 -0.937593 0.253374
H 0.593595 -0.665657 -1.658384
H 1.197754 0.827563 -1.561017
C 1.209059 -0.170345 0.292810
H -0.693856 1.650655 -0.570637
C 0.645093 0.147723 -1.097808
H -1.345745 0.548343 -1.549786
O 0.045957 -0.493269 1.079823
C -0.730281 0.684311 -0.787127
C -1.172410 -0.131497 0.426305
H -1.674830 -0.935165 0.143437
H -1.745168 0.412375 1.024737