92
Fe1 H36 C49 N4 Cl2
C -5.924036 4.641439 1.779619
C -4.581020 5.002445 1.780303
C -3.589095 4.099671 1.417961
C -6.981921 5.611966 2.245265
C -2.604816 -5.598879 4.723362
C -1.330825 -5.047026 4.811370
C -3.049973 -6.665735 5.696671
H 3.062135 6.983066 -5.718627
H 3.687300 5.797383 -6.590706
H 2.232075 6.365011 -6.937760
H 3.385225 1.592540 -3.387834
H 4.305106 -0.561602 -2.569326
H 2.109507 -4.692744 -0.003235
H 0.175766 -4.920312 1.529741
H -0.037042 -3.697132 4.008655
H 1.139658 2.067072 -5.220803
H 3.748334 -2.838578 -3.307547
H 5.765074 -3.947974 -3.625968
H 6.131855 -4.431557 0.368175
H 4.168326 -3.230358 0.699683
Fe -0.127592 -0.104138 -0.137767
H 7.660096 -5.110383 -2.828832
H -3.292903 -1.469289 3.608189
H 8.191169 -4.567322 -1.419813
H -4.057880 0.801222 2.960720
H 7.394668 -5.953421 -1.494243
H -3.177221 3.813917 -1.322435
H -1.337228 3.954855 -2.985261
H -3.638804 -3.831604 2.168207
H -4.333101 -5.484061 3.654241
C 1.614873 1.082838 -2.298378
C 2.860067 6.162656 -6.213746
C 2.414895 -0.831969 -1.591621
H -5.514336 1.557629 0.758691
C 1.491472 -2.652257 -0.247337
H -7.165566 3.085957 1.355411
C 2.942069 0.963753 -2.830559
C 3.440980 -0.210940 -2.388549
C 1.487734 -4.011978 0.226667
C 0.432016 -4.136365 1.059083
C 0.759883 2.142971 -2.570552
C 2.505868 -2.106739 -1.038938
C -1.947995 -1.333007 1.939388
C 1.222430 3.196250 -3.524884
C -2.635725 0.671405 1.365066
C 1.373704 2.922910 -4.882953
C -2.099550 2.159133 -0.491256
C 1.864587 3.896670 -5.745403
C -0.475715 2.287658 -1.956390
C -0.233676 -2.861853 1.100332
C 3.748155 -2.901160 -1.271957
C -2.972108 -0.951700 2.878852
C 4.239235 -3.142046 -2.553271
C -3.389990 0.284927 2.524467
C 5.436523 -3.819321 -2.743839
C -2.412100 3.252237 -1.368343
C 6.165777 -4.314411 -1.663262
C -1.409479 3.329171 -2.273779
C 5.659793 -4.092273 -0.383286
C 4.480476 -3.385906 -0.184327
C 7.466962 -5.051034 -1.869545
C 0.825174 0.651751 1.091807
C -1.299926 -2.562781 1.942185
C -2.847817 1.834978 0.634383
H 2.311442 6.282258 -3.588986
C -1.756179 -3.601708 2.917772
H 1.431758 4.681522 -2.140493
C -3.040720 -4.141278 2.838036
C -3.455916 -5.127192 3.727410
C -0.910557 -4.061371 3.926065
N 1.306668 -0.007033 -1.508439
N 0.394020 -1.967871 0.245684
C -3.920684 2.793997 1.047459
Cl 1.698732 2.130817 0.910936
C -5.267130 2.436224 1.023672
Cl 1.016960 0.028007 2.700285
C -6.252656 3.349083 1.382004
H -4.337149 5.885307 2.034566
H -2.679517 4.372494 1.421986
H -7.863779 5.190965 2.176962
H -6.810326 5.859447 3.177444
H -6.957901 6.415438 1.683975
N -1.725919 -0.319940 1.027875
N -0.938915 1.523752 -0.899085
H -0.737553 -5.349589 5.489193
C 2.242427 5.149977 -5.280199
H -3.968646 -6.936102 5.486930
C 2.072028 5.426162 -3.926032
H -2.455496 -7.441666 5.625182
C 1.556760 4.468306 -3.058071
H -3.013584 -6.310289 6.609812
H 1.942900 3.701426 -6.672213