130
H58 Ru1 C63 Br2 N4 O2
Br 0.527285 4.890966 -0.849697
H 2.273239 -3.073537 -0.501882
H -3.753739 -3.238377 1.744914
O 1.528655 -2.740391 0.083531
H -2.731750 -2.317392 3.795356
H 1.883446 0.085381 4.862849
O -2.463143 4.544532 -0.357839
H 3.822738 0.848286 3.525808
H 3.593285 0.732744 -3.741763
H -1.030837 -1.706694 -4.802156
H -2.738750 -2.826585 -3.443394
H -0.230393 -2.732072 7.601252
H -2.075736 0.807384 7.126214
H -0.073282 -3.729623 4.485304
H 1.306282 -2.931709 4.630974
H 0.775846 -3.839735 5.837309
H -2.363260 -0.940362 9.265235
H -0.908092 -1.553370 9.525571
H -1.098931 0.030903 9.403810
H -2.173725 0.840294 3.698067
H -2.425007 1.739153 4.998067
H -0.995405 1.754193 4.278980
H 4.890325 1.151044 -1.705812
H 3.684592 3.267870 -0.444881
H 3.206165 3.346439 1.080229
H 2.303707 -0.793547 -7.723572
H 0.089222 2.384840 -6.735303
H 2.839648 -2.479998 -6.137225
H 3.368287 -1.750273 -4.814692
H 1.980401 -2.546665 -4.788776
H 4.281755 4.392845 0.524133
H 1.538933 0.622170 -9.456770
H 0.329986 1.624978 -9.150206
H 7.897108 0.351032 1.960030
H 1.842415 2.117592 -8.974279
H -0.885659 2.604274 -4.582943
H -0.716266 1.451068 -3.486332
H 6.591270 -1.609370 1.589618
H 0.412941 2.573482 -3.648188
H -4.707045 -6.488593 -1.115728
H 5.139570 -1.502512 0.924613
H -6.758995 -3.133985 -1.852863
H 5.310251 -1.326080 2.506017
H 9.115203 3.318285 1.030056
H -1.617101 -5.334367 -1.146829
H -2.010744 -5.188302 0.397441
H 6.516748 3.974390 1.004491
H -2.478050 -6.476596 -0.429049
H 8.687815 3.528283 2.557894
H -6.917139 -6.710144 -1.907896
H 9.412973 2.174207 2.108730
H -7.824036 -5.636779 -1.142049
H -7.528001 -5.464294 -2.705285
H -4.283221 -0.922877 -2.035510
H -5.823571 -0.998942 -1.608192
H -4.685853 -0.903697 -0.486776
H 1.144510 2.113702 -0.490543
H -2.387443 0.283902 0.477971
H 0.452095 -4.360502 0.175396
H 1.937747 -4.525014 0.747061
H 0.833503 -3.743276 1.601789
Ru 0.423234 -0.764815 0.024417
C -2.129034 -2.335994 0.684088
C -2.954759 -2.726911 1.794276
C -2.393139 -2.241635 2.911989
C -1.168075 -1.577268 2.509280
C -0.242118 -1.013038 3.372845
C 0.978172 -0.454585 2.988504
C 2.713944 0.236741 1.796158
C 1.962996 0.051874 3.917484
C 3.526941 0.566036 0.717078
C 3.021005 0.469751 3.184477
C 3.184877 0.404277 -0.637831
C 4.012193 0.791343 -1.750169
C 3.312157 0.552556 -2.853574
C 2.056864 -0.029005 -2.471573
C 1.046585 -0.452659 -3.334366
C -0.092565 -1.169020 -2.964371
C -1.051933 -1.748655 -3.852288
C -1.981072 -2.359102 -3.112742
C -1.639009 -2.185789 -1.737971
C -2.405867 -2.609443 -0.673592
C -0.576227 -1.038072 4.879084
C -0.216663 -2.091430 5.656215
C -0.499859 -2.024031 7.028094
C -1.172848 -0.928307 7.556454
C -1.591279 0.080760 6.753630
C -1.316038 0.061503 5.386546
C 0.508830 -3.242999 5.106539
C -1.406724 -0.839725 9.076164
C -1.766288 1.197666 4.515512
C 3.966054 3.466140 0.473074
C 1.149999 -0.019377 -4.782993
C 1.851627 -0.743440 -5.731394
C 1.853218 -0.285123 -7.058273
C 1.215230 0.887628 -7.421318
C 0.535877 1.584731 -6.487137
C 0.477010 1.149523 -5.154336
C 2.570755 -1.987442 -5.333042
C 1.232731 1.355573 -8.882911
C -0.242118 2.023791 -4.124682
C -3.642067 -3.416312 -0.966852
C 4.868147 1.163003 1.017358
C -3.586383 -4.797039 -0.871318
C 5.916610 0.323398 1.447206
C -4.744625 -5.540359 -1.166679
C 7.179857 0.910736 1.686033
C -5.918776 -4.947243 -1.523951
C 7.412142 2.237544 1.540868
C -5.949005 -3.564591 -1.604242
C 6.362088 3.044412 1.123101
C -4.825765 -2.784682 -1.327110
C 5.079748 2.532176 0.870360
C -2.310407 -5.511473 -0.476905
C 5.722509 -1.157466 1.632118
C -7.156568 -5.761814 -1.848825
C 8.781986 2.871099 1.836202
C -4.911679 -1.267230 -1.367881
C -0.475994 0.933845 -0.003181
C 0.208132 2.143184 -0.334082
C -0.431446 3.325564 -0.432812
C -1.856975 3.475769 -0.237781
C -2.518827 2.235618 0.140470
C -1.888795 1.057089 0.240187
C 1.161136 -3.930474 0.697492
Br -4.374560 2.352123 0.500927
N -1.042387 -1.621559 1.121906
N 1.457061 -0.333266 1.715562
N 1.994816 -0.104108 -1.082833
N -0.463266 -1.444395 -1.670835