12
H5 C6 Cl1
C 0.139098 0.265991 -0.267369
C -0.986183 0.519719 0.467500
H -1.460035 1.333520 0.343367
C -1.435032 -0.400484 1.389989
H -2.206797 -0.215742 1.915383
C -0.771551 -1.572077 1.546981
C 0.843890 -0.864678 -0.119901
H -1.088144 -2.226859 2.159704
C 0.396470 -1.804758 0.792303
H 1.630501 -1.017850 -0.631567
H 0.880331 -2.613882 0.912307
Cl 0.678112 1.441208 -1.424176