60
C60
C -0.061341 0.336465 3.508338
C -3.360303 0.302335 -0.752865
C 2.082035 -0.786412 -2.646234
C -3.116522 -1.294949 1.006997
C -1.881786 -0.759108 2.838046
C 3.421249 -0.274462 0.810069
C 0.315412 -3.213055 -1.289371
C -1.258085 -2.131134 -2.555264
C 1.268375 -3.117491 1.054556
C 2.846621 1.882554 0.265547
C 2.425545 -2.318849 -1.061435
C 2.267245 0.964457 2.496672
C -1.201098 1.670948 2.799579
C 1.075250 -2.417826 2.361570
C 0.613015 1.053195 -3.259112
C 2.082035 -1.294949 2.540063
C -3.016793 -0.994605 -1.452981
C -1.688660 0.152163 -3.041865
C 0.049469 -1.506555 -3.159591
C 3.090403 1.022478 1.329201
C -2.431085 -1.783008 1.916221
C -2.211049 0.619744 2.722305
C -2.505486 2.452525 -0.396115
C -0.303539 3.302362 1.073732
C 1.151233 -1.755704 -2.769707
C -0.267130 0.025882 -3.468584
C 3.408585 -0.079921 -0.751003
C -3.008878 1.036130 1.650804
C 2.452455 -2.489499 0.364654
C -3.502773 0.145337 0.833122
C -0.957316 -2.878581 -1.700306
C 1.917403 0.786981 -2.682636
C -2.443749 2.316005 1.072827
C 2.938435 -1.390513 1.360242
C -1.205847 2.776760 1.759877
C 3.118896 1.162411 -1.044727
C -1.856458 -2.940015 -0.584788
C -1.288162 3.118060 -1.086097
C 2.286241 1.684600 -1.913720
C 2.881447 -1.086756 -1.501130
C -2.211049 -1.015083 -2.525332
C 0.191938 1.664122 3.050736
C 1.983889 2.814303 0.371933
C -0.257632 3.483251 -0.303464
C -0.578981 -0.960475 3.347052
C -0.099333 -2.250589 2.760083
C -1.264417 -2.731822 1.873500
C 0.255258 -3.516812 0.143065
C 1.274707 2.077095 2.483762
C -1.074458 -3.315445 0.621699
C -2.070162 1.336474 -2.433667
C 1.171812 3.203385 -0.622857
C 1.254128 2.971301 1.487038
C -2.950307 1.432038 -1.213917
C 0.214100 2.240919 -2.730613
C 1.489994 -0.086747 3.194780
C -2.883822 -1.967310 -0.309315
C 1.167063 2.670957 -1.730033
C -1.066543 2.401330 -2.307305
C 1.328529 -2.748887 -1.804035