91
Ni1 P1 H40 C45 N4
C 3.821656 -1.822334 5.059166
C 3.132552 -0.796617 4.407331
C 3.268710 0.619343 4.904166
N -1.006701 0.000876 1.218712
N -2.280324 0.882795 -0.947935
N -0.269599 1.442042 -2.183142
N 1.408240 0.665656 -0.270449
C -7.217676 -1.834026 2.147323
C -8.520541 -2.426679 2.616284
H -4.894372 -3.564002 -0.524794
H -3.549476 -2.976360 0.113640
H 2.974423 -4.333859 3.201151
H 0.570989 -2.950546 1.824887
H 1.853236 -3.724958 1.264227
H 4.750959 -3.940579 6.250698
H 4.027425 -5.041459 5.342931
H 5.397699 -4.374857 4.854217
Ni -0.489350 0.744160 -0.469254
P 1.451049 0.235933 2.468237
H -0.607300 -1.324280 4.111040
H -2.957543 -1.485236 3.296437
H -5.446423 0.601121 -1.125400
H -4.432617 1.697446 -3.144493
H -1.636170 2.433897 -4.880762
H 0.854674 2.289644 -5.036512
H 4.471539 0.683118 -1.234234
H 4.205340 0.122808 1.186490
H -7.233801 -0.206697 3.346693
H -4.634057 0.988327 3.779470
H -4.324075 1.560785 2.316902
H -5.762800 1.793109 2.978630
H -4.292144 -2.182207 -1.061213
H 4.560817 -0.290212 -6.009563
H 5.622759 3.332822 -4.615419
H 1.637671 -0.688047 -4.595324
H 2.905688 -1.585454 -4.980953
H 2.594160 -1.255950 -3.445777
H 5.970969 2.104392 -7.330713
H 6.609686 0.734745 -6.806683
H 4.137158 4.514181 -3.087624
H 2.970721 3.720029 -2.334692
H 4.493142 3.524148 -1.882851
H 4.341650 -1.609750 5.824921
H 1.624832 -2.183726 0.897245
H 4.013297 0.670970 5.539225
H 3.443867 1.216096 4.147149
H 2.438850 0.889628 5.349305
H -6.795789 -3.275495 0.785654
H -8.341518 -3.242089 3.132080
C 3.011343 -3.434781 3.505039
C 3.775468 -3.127294 4.631078
C 1.518462 -2.864905 1.594170
C 4.555997 -4.216938 5.331166
C -0.212154 -0.336677 2.258174
C -0.945969 -1.000242 3.283574
C -2.231185 -1.077379 2.839452
C -2.291249 -0.438110 1.567069
C -3.456888 -0.237522 0.823933
C -3.449745 0.453224 -0.385318
C -4.523454 0.772707 -1.272063
C -3.968989 1.375533 -2.380221
C -2.572184 1.419721 -2.157813
C -1.390929 1.741026 -2.887320
C -1.040433 2.155108 -4.194688
C 0.323563 2.075693 -4.277654
C 0.803269 1.613172 -3.015240
C 2.091015 1.309936 -2.584940
C 2.360271 0.872925 -1.283935
C 3.652963 0.632553 -0.755123
C 3.509915 0.315652 0.568086
C 2.119795 0.330684 0.832751
C -4.754472 -0.793732 1.313889
C -5.500444 -0.121967 2.285194
C -6.725324 -0.660260 2.686565
H -8.988580 -1.778298 3.183124
H -9.077590 -2.645336 1.840834
C -6.460107 -2.475573 1.174662
C -5.238602 -1.990123 0.755420
C -5.011756 1.167505 2.891876
C -4.421629 -2.745554 -0.270018
C 3.213739 1.404384 -3.572628
C 3.416733 0.337062 -4.455533
C 4.429904 0.428625 -5.403445
C 5.255800 1.543626 -5.488749
C 5.053111 2.573291 -4.581879
C 4.041534 2.535178 -3.622021
C 2.564055 -0.907768 -4.360967
C 6.326539 1.636708 -6.548243
C 3.898398 3.672956 -2.647582
C 2.351713 -1.125970 3.279560
C 2.298446 -2.457655 2.816462