266
Ni2 H124 C132 N8
C 1.151018 -9.852410 -0.663099
C 5.699697 -1.243427 1.631014
C 6.207418 -2.552517 1.681186
H 1.618194 13.947000 -1.028295
C 1.006621 -13.704238 1.349240
H 2.045008 12.443138 -0.909614
H 1.092714 13.074841 0.163633
H -1.618194 -13.947000 1.028295
C 2.096631 -10.905830 -2.779881
H -2.045008 -12.443138 0.909614
C 6.015807 -0.317144 0.536568
H -1.092714 -13.074841 -0.163633
C 6.014576 1.081362 0.771008
C 0.865613 -5.286659 12.727632
C 3.210089 -3.339090 7.377474
C 0.442367 -9.081206 -2.965412
C 3.867283 -3.204967 6.175535
C 3.163840 -3.930067 5.215982
C 2.737853 -8.604792 -2.242877
C 1.152804 -8.783622 0.205310
C 5.932508 1.961541 -0.304026
C -1.958499 -4.697079 5.760054
C -0.523040 -12.689938 3.074842
C -4.883238 -4.653769 3.532825
C 1.391210 -1.976909 10.794316
C 0.762139 -11.083263 -0.217341
C 4.531343 -3.231512 3.249797
C 0.941838 -3.674396 9.286211
C 5.644849 -3.506743 2.518491
C 3.087552 -7.136431 1.960725
C -2.590477 -4.216474 6.981937
C -3.802784 6.014553 -2.311329
H 0.787317 13.580664 -3.313941
C -1.643522 -4.068380 7.944280
C -5.357736 -2.425381 2.686405
H 1.258847 12.088762 -3.215363
H -0.787317 -13.580664 3.313941
H -5.155801 -5.536378 3.641239
C -6.081371 0.741865 0.779049
H -1.258847 -12.088762 3.215363
C 1.846106 -7.034442 2.754828
C 1.940438 -4.030658 6.982732
C -0.495632 -7.343203 2.898170
C -3.757747 -4.216474 4.159097
C 2.616684 6.745240 -2.702681
C -5.838620 -1.521451 1.607859
C 0.863923 -4.090734 7.883758
C 0.844058 -4.616047 10.310563
C 1.935214 -6.324711 12.482921
C -6.000795 -0.143902 1.870194
C 4.145489 -1.928010 3.289807
C 4.718144 -0.980770 2.466891
C 5.652214 3.777782 -2.712426
C 1.005699 -4.250004 11.644669
C 1.271664 -2.899000 11.890323
C 3.130841 -5.295042 3.291380
C -0.386476 -4.442805 7.262394
C 1.812623 -0.509945 11.260070
C 3.045891 -0.476414 12.084672
C -3.547498 -2.843116 4.196919
C 3.648803 -4.184340 3.928190
C -4.330983 -1.982497 3.439204
C 0.619317 0.229126 11.837716
C 1.194206 -2.354128 9.590818
Ni -0.668386 5.411980 -4.803166
C 1.015157 -4.778111 14.114912
H 6.933183 -2.783334 1.146610
C -2.605563 -5.011429 4.604120
C -0.451217 -6.130513 12.472813
C 2.287794 0.305967 9.960678
C -2.014083 -5.953080 3.798135
H -6.067895 -1.408593 -1.640164
N 1.963432 -4.437217 5.684540
H -3.486142 3.068009 -8.223005
N -0.664468 -6.333093 3.870021
H -4.645294 2.715784 -6.030031
N 1.972689 -5.954477 3.563374
H -5.939707 -2.876954 0.137486
N -0.633956 -4.864732 6.037491
H -6.034523 4.348054 -2.579376
H 3.498090 4.040075 -7.086349
H 4.621813 -5.771651 1.943003
C 1.331422 13.068554 -0.765185
C -1.331422 -13.068554 0.765185
H 1.759544 3.794882 -8.825621
H 6.183605 -1.650349 -0.949137
H 1.878735 8.327899 -1.589378
H -0.094036 10.297976 -2.827408
H 1.831928 -7.044627 13.109391
H -3.485831 -6.635539 2.388500
C -5.652214 -3.777782 2.712426
H -0.669514 5.504943 -10.097762
H -0.706453 14.570348 -1.634413
H -1.213150 13.730127 -0.411806
H -1.853413 6.664334 -11.588745
H -1.790853 13.457607 -1.843468
H -2.801164 5.924914 -12.595146
H -2.359293 10.694685 3.679503
H 6.052808 -0.171509 -2.743685
H -2.851208 11.255484 2.300747
H -1.396386 11.562331 2.797718
H -3.480010 1.669698 -3.886198
H -4.394149 0.110637 -2.507825
H -1.372313 2.597015 -12.764053
H -0.767475 8.950590 3.858898
H -3.740342 0.966268 -11.640020
H 0.280142 9.712755 2.976206
H -3.323520 -0.434766 -12.206869
H -0.132203 8.244799 2.611457
H -2.868882 0.874269 -12.939905
H -2.954895 8.515726 3.173758
H 2.873612 2.496731 -4.735488
H -2.464093 7.752053 1.895553
H 4.140267 1.072099 -3.451836
H -3.509672 8.912533 1.762278
H -1.444702 7.953977 0.099626
H 0.126227 -0.151810 -11.238554
H -0.387290 0.153500 -12.687905
H -0.841943 -1.155535 -11.954849
H -1.222800 1.725331 -8.907024
H -0.220048 12.418396 -3.617555
H 6.348609 4.113619 -2.195854
H -0.911075 5.503672 -14.734138
H -1.885413 4.387969 -14.220809
H -0.784452 11.812204 0.795025
H -0.343366 4.113102 -14.285011
H 0.472552 6.421027 -11.557463
H 0.458560 6.895290 -13.051583
H 1.220250 5.584481 -12.652461
H -1.563217 -0.358037 -9.332006
H -3.330716 7.805827 -1.362275
H -2.551953 -1.192837 -10.217081
H -3.031581 0.144293 -9.553731
C -5.699697 1.243427 -1.631014
C -6.207418 2.552517 -1.681186
C -6.014576 -1.081362 -0.771008
C -6.015807 0.317144 -0.536568
C -0.865613 5.286659 -12.727632
C -3.210089 3.339090 -7.377474
C -3.867283 3.204967 -6.175535
C -3.163840 3.930067 -5.215982
C -5.932508 -1.961541 0.304026
C 1.958499 4.697079 -5.760054
C 4.883238 4.653769 -3.532825
C -1.391210 1.976909 -10.794316
C 0.117025 12.657804 -1.603312
C -4.531343 3.231512 -3.249797
H -6.348609 -4.113619 2.195854
C -0.728027 7.776307 -2.469282
C -0.941838 3.674396 -9.286211
C -5.644849 3.506743 -2.518491
C -0.313546 11.264887 -1.164927
C 2.590477 4.216474 -6.981937
C -0.345388 10.194702 -1.937910
C 1.727102 7.657552 -2.215222
C 3.802784 -6.014553 2.311329
C -1.585299 9.623284 2.076084
C 1.643522 4.068380 -7.944280
C 5.357736 2.425381 -2.686405
C 6.081371 -0.741865 -0.779049
C -0.732239 8.910759 -1.515549
C -1.940438 4.030658 -6.982732
C 3.757747 4.216474 -4.159097
C -2.616684 -6.745240 2.702681
C 5.838620 1.521451 -1.607859
C 0.495632 7.343203 -2.898170
C -0.863923 4.090734 -7.883758
C -1.151018 9.852410 0.663099
C -0.844058 4.616047 -10.310563
C -1.935214 6.324711 -12.482921
C 6.000795 0.143902 -1.870194
C -4.145489 1.928010 -3.289807
C -1.006621 13.704238 -1.349240
C -4.718144 0.980770 -2.466891
C -1.005699 4.250004 -11.644669
C -2.096631 10.905830 2.779881
C -1.271664 2.899000 -11.890323
C -3.130841 5.295042 -3.291380
H 0.094036 -10.297976 2.827408
C 0.386476 4.442805 -7.262394
H -1.878735 -8.327899 1.589378
C -1.812623 0.509945 -11.260070
C -0.442367 9.081206 2.965412
C -3.045891 0.476414 -12.084672
C -2.737853 8.604792 2.242877
C 3.547498 2.843116 -4.196919
C -1.152804 8.783622 -0.205310
C -3.648803 4.184340 -3.928190
C 4.330983 1.982497 -3.439204
C -0.619317 -0.229126 -11.837716
C -1.194206 2.354128 -9.590818
C -1.015157 4.778111 -14.114912
C 0.523040 12.689938 -3.074842
C 2.605563 5.011429 -4.604120
C -0.762139 11.083263 0.217341
C 0.451217 6.130513 -12.472813
C -2.287794 -0.305967 -9.960678
H 0.706453 -14.570348 1.634413
C 2.014083 5.953080 -3.798135
H 1.213150 -13.730127 0.411806
N -1.963432 4.437217 -5.684540
H 1.790853 -13.457607 1.843468
N 0.664468 6.333093 -3.870021
C -3.087552 7.136431 -1.960725
N -1.972689 5.954477 -3.563374
H 2.359293 -10.694685 -3.679503
N 0.633956 4.864732 -6.037491
H 2.851208 -11.255484 -2.300747
Ni 0.668386 -5.411980 4.803166
H 1.396386 -11.562331 -2.797718
H -6.933183 2.783334 -1.146610
H 0.767475 -8.950590 -3.858898
C -1.846106 7.034442 -2.754828
H -0.280142 -9.712755 -2.976206
H 6.067895 1.408593 1.640164
H 0.132203 -8.244799 -2.611457
H 3.486142 -3.068009 8.223005
H 2.954895 -8.515726 -3.173758
H 4.645294 -2.715784 6.030031
H 2.464093 -7.752053 -1.895553
H 5.939707 2.876954 -0.137486
H 3.509672 -8.912533 -1.762278
H 1.444702 -7.953977 -0.099626
H 0.220048 -12.418396 3.617555
H 6.034523 -4.348054 2.579376
H -3.498090 -4.040075 7.086349
H 0.784452 -11.812204 -0.795025
H -4.621813 5.771651 -1.943003
H 3.330716 -7.805827 1.362275
H -1.759544 -3.794882 8.825621
H -6.183605 1.650349 0.949137
H 3.485831 6.635539 -2.388500
H 0.669514 -5.504943 10.097762
H 1.853413 -6.664334 11.588745
H 2.801164 -5.924914 12.595146
H -6.052808 0.171509 2.743685
H 3.480010 -1.669698 3.886198
H 4.394149 -0.110637 2.507825
H 1.372313 -2.597015 12.764053
C -0.117025 -12.657804 1.603312
H 3.740342 -0.966268 11.640020
C 0.728027 -7.776307 2.469282
H 3.323520 0.434766 12.206869
C 1.585299 -9.623284 -2.076084
H 2.868882 -0.874269 12.939905
C 0.313546 -11.264887 1.164927
H -2.873612 -2.496731 4.735488
C 0.345388 -10.194702 1.937910
H -4.140267 -1.072099 3.451836
C -1.727102 -7.657552 2.215222
H -0.126227 0.151810 11.238554
H 0.387290 -0.153500 12.687905
H -1.831928 7.044627 -13.109391
H 0.841943 1.155535 11.954849
H 5.155801 5.536378 -3.641239
H 1.222800 -1.725331 8.907024
C 0.732239 -8.910759 1.515549
H 0.911075 -5.503672 14.734138
H 1.885413 -4.387969 14.220809
H 0.343366 -4.113102 14.285011
H -0.472552 -6.421027 11.557463
H -0.458560 -6.895290 13.051583
H -1.220250 -5.584481 12.652461
H 1.563217 0.358037 9.332006
H 2.551953 1.192837 10.217081
H 3.031581 -0.144293 9.553731