78
Ti1 H28 C44 N4 O1
H 4.459006 2.655128 -2.099956
H 6.400868 3.892835 -2.074938
H 4.524954 -2.388821 -0.078312
H 5.116051 -0.009620 -0.113146
C 1.757277 2.497302 -0.082330
H 2.655128 -4.459006 -2.099956
C 1.673253 3.930926 -0.084285
H 3.892835 -6.400868 -2.074938
C 0.363925 4.256318 -0.096017
C 3.029810 0.380114 -0.077441
C 2.955018 1.774938 -0.100905
C 4.231299 2.541990 -0.082330
C 2.497302 -1.757277 -0.082330
C 4.839401 2.908725 -1.289740
C 3.930926 -1.673253 -0.084285
C 6.000751 3.641927 -1.274097
C 4.256318 -0.363925 -0.096017
C 6.581425 4.012542 -0.059844
C 0.380114 -3.029810 -0.077441
C 1.774938 -2.955018 -0.100905
H -4.524954 2.388821 -0.078312
C 2.541990 -4.231298 -0.082330
H -5.116051 0.009620 -0.113146
N 0.490095 1.967872 -0.087218
H -2.655128 4.459006 -2.099956
C 2.908725 -4.839401 -1.289740
Ti 0.000000 0.000000 0.472003
H -3.892835 6.400868 -2.074938
C 3.641927 -6.000751 -1.274097
C 4.012542 -6.581425 -0.059844
H -2.388821 -4.524954 -0.078312
H -0.009620 -5.116051 -0.113146
C -2.497302 1.757277 -0.082330
N 1.967872 -0.490095 -0.087218
H 7.371089 4.503292 -0.047427
H -4.459006 -2.655128 -2.099956
C -3.930926 1.673253 -0.084285
H 6.370322 3.915098 1.887792
H -6.400868 -3.892835 -2.074938
C -4.256318 0.363925 -0.096017
H 4.442281 2.644224 1.866655
C -0.380114 3.029810 -0.077441
C -1.774938 2.955018 -0.100905
C -2.541990 4.231299 -0.082330
C -1.757277 -2.497302 -0.082330
H 4.503292 -7.371089 -0.047427
C -2.908725 4.839401 -1.289740
C -1.673253 -3.930926 -0.084285
H 3.915098 -6.370322 1.887792
C -3.641927 6.000751 -1.274097
C -0.363925 -4.256318 -0.096017
H 2.644224 -4.442281 1.866655
C -4.012542 6.581425 -0.059844
C -3.029810 -0.380114 -0.077441
C -2.955018 -1.774938 -0.100905
C -4.231298 -2.541990 -0.082330
N -1.967872 0.490095 -0.087218
C -4.839401 -2.908725 -1.289740
C 5.996737 3.659321 1.075220
C -6.000751 -3.641927 -1.274097
C 4.823346 2.903373 1.058599
C -6.581425 -4.012542 -0.059844
O 0.000000 0.000000 2.101763
H -4.503292 7.371089 -0.047427
N -0.490095 -1.967872 -0.087218
H -3.915098 6.370322 1.887792
C 3.659321 -5.996737 1.075220
H -2.644224 4.442281 1.866655
C 2.903373 -4.823346 1.058599
H -7.371089 -4.503292 -0.047427
H -6.370322 -3.915098 1.887792
H -4.442281 -2.644224 1.866655
C -3.659321 5.996737 1.075220
C -2.903373 4.823346 1.058599
C -5.996737 -3.659321 1.075220
C -4.823346 -2.903373 1.058599
H 2.388821 4.524954 -0.078312
H 0.009620 5.116051 -0.113146