156
Mn1 H59 C91 N4 Cl1
C 2.104134 -2.889344 1.898876
C 2.127199 -2.908231 0.496922
H -2.994589 -2.845760 -1.986942
C 3.306867 -2.774572 -0.246947
H -1.978596 -3.426884 0.189666
C 4.525375 -2.620574 0.425741
C 4.526165 -2.619121 1.784476
C 3.368745 -2.762950 2.513802
H -6.369859 -0.672355 -4.835281
H -3.770954 -3.573618 -5.870305
H -4.545430 0.131050 -1.425240
H -5.096655 2.098156 -0.297032
H 5.454240 6.773302 4.804462
H -5.741333 3.985357 -1.473400
H 7.057346 7.453217 6.365873
H -5.868744 3.917075 -3.813792
H -5.325254 1.948516 -4.952336
H -5.265548 -3.458846 -7.817100
H -6.973284 -4.663227 -8.880936
H -9.030023 -4.933449 -7.840155
N -0.736552 1.513109 -2.568436
H -9.424747 -3.965877 -5.762247
N -1.065698 -0.556275 -0.881257
H -7.730162 -2.739705 -4.691054
N 0.763502 0.792805 0.789570
H -2.293883 -4.683566 -4.243536
N 0.906547 2.635405 -1.149644
H -0.225277 -5.732495 -4.165007
Cl 1.828812 -0.325714 -2.159442
H 1.150222 -0.572111 3.646947
H 2.453501 1.525748 3.394538
C -0.168153 -5.237668 5.620350
C 0.120073 -6.870046 7.823395
C -0.798679 -5.824023 7.877324
H -2.273930 -4.021084 4.487701
C -0.947200 -4.998826 6.740203
H 3.733220 5.250756 4.404271
H 6.533516 3.764530 1.935844
H -1.827770 5.509356 4.535677
H -3.791737 -4.143120 2.584357
H -0.245871 4.610066 5.993616
H -5.940729 -3.397828 2.079011
H 1.841534 3.973735 5.203031
H -6.365160 -1.118368 1.889370
H -4.641987 0.415801 2.169238
H -2.481335 -0.310605 2.635273
H 8.897687 6.122443 6.782136
H 9.138160 4.087054 5.677736
H 7.546140 3.417308 4.096127
C -2.206625 -0.317288 -3.073021
C -1.904839 -1.018995 -1.882040
C -2.390674 -2.305024 -1.490778
C -1.843843 -2.620720 -0.294941
H 3.422557 -2.778931 3.463365
H 1.259062 -6.499580 4.815760
H 1.451723 -7.910259 6.672392
C -3.225701 -0.957396 -3.974272
C -4.502836 -0.399807 -4.044313
C -5.502096 -1.053282 -4.783607
C -5.238872 -2.253739 -5.442634
C -3.960724 -2.772684 -5.396693
C -2.933725 -2.150445 -4.669895
C -4.870680 0.852952 -3.307681
C -4.811115 0.900168 -1.915297
C -5.139305 2.070553 -1.245426
C -5.524325 3.186747 -1.939677
C -5.596845 3.146359 -3.329568
C -5.271871 1.976701 -4.004040
C -6.329145 -2.994383 -6.144140
C -6.108459 -3.560688 -7.392122
C -7.125907 -4.279539 -8.024283
C -8.345030 -4.433392 -7.412556
C -8.576498 -3.864180 -6.179289
C -7.567249 -3.135886 -5.538848
C 6.208264 6.221524 4.973087
C -1.603814 -2.801013 -4.625714
C 7.162809 6.628021 5.905236
C -1.504685 -4.173484 -4.378593
C -0.274567 -4.797612 -4.330010
Mn 0.215898 0.841184 -1.057270
H -0.870095 3.587287 -4.955124
H -2.386625 1.625992 -5.270548
C 2.935997 4.234224 2.819811
C 3.963462 4.750553 3.630022
C 5.292728 4.551663 3.334492
C -1.478492 -3.774106 4.031574
H 2.919954 5.070607 -0.884511
C -1.548317 -2.839949 2.984807
H 1.604521 5.111286 -3.007094
C 5.618296 3.876833 2.166048
C 1.546327 4.506190 3.259736
C 0.586075 5.038355 2.396261
C -0.661820 5.402720 2.875957
C -0.973849 5.250611 4.212167
C -0.036239 4.719463 5.073554
C 1.206221 4.346381 4.602593
C 6.343460 5.023682 4.290556
C 8.241819 5.843503 6.153327
C 8.388513 4.642028 5.494209
C 7.435420 4.241779 4.556027
C -2.898534 -2.303861 2.654960
C -3.956201 -3.211868 2.491262
C -5.236332 -2.771667 2.199393
H 1.729423 -4.500512 -4.466290
H 1.602009 -2.213787 -4.935273
C -5.487175 -1.422005 2.082972
H -0.470980 -1.157594 -5.031235
C -4.464232 -0.513998 2.247704
C -3.178762 -0.946936 2.527988
H 0.789708 5.150512 1.475966
H -1.309139 5.760693 2.279700
H 6.346039 4.145167 -0.503596
H 7.206698 3.081709 -2.384018
C 0.739976 -6.335412 5.593480
H 6.460488 0.943171 -2.964145
C 0.866273 -7.160609 6.691337
H 4.863915 -0.123192 -1.640899
H 4.010634 0.925737 0.249204
H 1.694137 -4.435135 3.942494
H 1.306208 -3.015739 0.030603
H 3.280911 -2.789100 -1.197479
H 5.336260 -2.518877 -0.058356
H 5.350341 -2.515972 2.244484
C -0.298151 2.670273 -3.122675
C -0.974855 2.854925 -4.359256
C -1.809516 1.773889 -4.530155
C -1.657756 0.915568 -3.405616
C -1.021567 -1.514694 0.107600
C -0.298119 -1.376096 1.302976
C 0.493730 -0.251185 1.643059
C 1.181509 -0.021350 2.874032
C 1.890956 1.134652 2.735902
C 1.642247 1.656066 1.432468
C 2.215131 2.815845 0.857049
C 1.873529 3.286991 -0.408722
C 2.268585 4.432387 -1.150636
C 1.545121 4.457231 -2.320736
C 0.688923 3.316919 -2.307795
H 0.240286 -7.407587 8.597735
H -1.312783 -5.668572 8.660487
H -1.575413 -4.286948 6.744267
C 0.884655 -4.071932 -4.519199
C 0.808006 -2.714571 -4.787939
C -0.426205 -2.088264 -4.842691
C 3.279810 3.508400 1.661588
C 4.628666 3.353966 1.311281
C 5.089998 2.653711 0.081015
C 6.042062 3.272754 -0.727634
C 6.554425 2.644122 -1.850033
C 6.114638 1.376109 -2.193810
C 5.168177 0.746170 -1.407534
C 4.659752 1.371315 -0.283110
C -0.355299 -2.492727 2.302028
C 0.843297 -3.095643 2.670374
C 0.870518 -4.020793 3.712401
C -0.265366 -4.348257 4.414321