156
Mn1 H59 C91 N4 O1
C 2.131725 -2.917694 1.768455
C 2.158894 -2.938104 0.374579
H -2.950463 -2.780653 -2.084080
C 3.347063 -2.747122 -0.335584
H -1.966458 -3.375469 0.099797
C 4.532408 -2.576550 0.351742
C 4.521230 -2.551766 1.738298
C 3.327803 -2.701928 2.448187
H 6.458356 3.731702 1.992909
H 3.685107 5.185210 4.526792
H -3.676410 -3.570825 -5.934859
H 1.822941 3.948927 5.317868
H -0.258390 4.574358 6.150737
H -4.662860 0.342128 2.135157
H -1.865331 5.475328 4.716992
H -2.508092 -0.362028 2.626890
H -7.664826 -2.618828 -4.924784
H -9.323697 -3.862401 -6.009470
H -8.852346 -4.914991 -8.031621
H 7.686508 3.405137 3.889666
H -6.767767 -4.656946 -9.031664
H 9.370749 4.088883 5.348283
C -2.117139 -0.306483 -3.159945
H -5.097300 -3.432326 -7.948492
C -1.822526 -0.978858 -1.973782
H -2.280972 -4.674441 -4.233683
H -0.237492 -5.762020 -4.012314
H 5.420541 6.555618 5.051114
H 7.126964 7.234991 6.508846
C -3.125153 -0.928998 -4.078852
C -4.396528 -0.354885 -4.186875
C -5.381975 -0.990667 -4.945331
C -0.154346 -5.276546 5.520772
C -4.758299 0.902975 -3.465448
C -4.725259 0.945545 -2.064823
C 0.115708 -6.922494 7.766697
C -5.057241 2.111996 -1.401836
C -0.794583 -5.859698 7.779164
H -2.256281 -4.072336 4.375100
C -5.408969 3.230191 -2.092194
C -5.464677 3.204241 -3.482531
C -0.932465 -5.043285 6.653488
C -5.144711 2.029917 -4.163884
H -3.752942 -4.221040 2.511089
H -5.909811 -3.508136 2.022446
H -6.375468 -1.223636 1.838924
C -2.340688 -2.250713 -1.583401
C -1.815375 -2.571301 -0.383200
H 3.330356 -2.656733 3.397488
H 1.279416 -6.511371 4.770461
H 1.487657 -7.887611 6.632110
Mn 0.389141 0.804277 -1.155231
H -0.761067 3.636940 -4.943538
H -2.249683 1.667342 -5.322547
C -5.130230 -2.201000 -5.586852
C -3.860876 -2.753828 -5.486745
C -2.843384 -2.136999 -4.741716
C 5.547186 3.848916 2.235864
H 2.865779 5.109400 -0.775334
C 5.252095 4.510794 3.414372
H 1.593052 5.156052 -2.923582
C 3.908102 4.707462 3.735137
C 2.880852 4.220967 2.922949
C -6.205122 -2.920755 -6.319796
C -7.473820 -3.041614 -5.753527
C -8.460421 -3.780176 -6.398631
C -8.184087 -4.393653 -7.603752
C -6.944083 -4.253696 -8.190699
C -5.953191 -3.521840 -7.546705
C 1.491470 4.493008 3.380992
C -1.530005 -2.826139 -4.644415
C 1.175613 4.322873 4.730587
C -1.473952 -4.186780 -4.350190
C -0.063083 4.688801 5.227294
C -1.014844 5.220782 4.379213
C -0.725227 5.381441 3.032640
C 0.515966 5.024697 2.531739
C 6.384476 4.899465 4.324414
C 7.562850 4.182187 4.420018
C 8.568413 4.593310 5.287008
C -4.473708 -0.586542 2.208174
C 8.412747 5.723168 6.058143
C -3.191671 -1.007870 2.486776
C 7.238929 6.456482 5.975568
C 6.222877 6.051191 5.110263
H 3.926841 0.915076 0.369108
H 4.724811 -0.136057 -1.548235
H 6.306667 0.926739 -2.905271
H 7.056200 3.065451 -2.353328
H 6.226971 4.136993 -0.459206
H -1.383597 5.739205 2.448573
H 0.705851 5.141473 1.608027
C -1.455211 -3.823038 3.928256
C -1.518102 -2.882705 2.870459
C -0.216456 2.696461 -3.124756
C -0.868178 2.892837 -4.362278
C -1.687489 1.805841 -4.569311
C -1.545195 0.926301 -3.458280
H 9.107417 6.000165 6.642451
C -2.878774 -2.369531 2.569450
C -3.929825 -3.292369 2.417741
C -5.215952 -2.871042 2.140246
H 1.758195 -4.584052 -4.332572
H 1.689744 -2.321421 -4.853147
C -5.492457 -1.515212 2.031868
H -0.344882 -1.214889 -5.065778
C 0.446001 -0.248897 1.589457
C 1.115695 -0.042752 2.827949
C 1.799966 1.127052 2.732593
C 1.558015 1.680901 1.439962
C 2.141325 2.842978 0.922907
C 1.814737 3.312416 -0.338199
C 2.226219 4.468078 -1.060931
C 1.530745 4.491258 -2.248518
C 0.705834 3.341282 -2.277855
C 0.744043 -6.343715 5.539182
C 0.874323 -7.161586 6.645941
H 1.725643 -4.467422 3.851942
H 1.350917 -3.083892 -0.102966
H 3.339718 -2.735459 -1.284207
H 5.349524 -2.474498 -0.121341
H 5.336872 -2.432220 2.212582
C 3.199635 3.512000 1.750110
C 4.553087 3.346530 1.389144
C 4.994162 2.646164 0.154505
C 4.558140 1.360021 -0.185318
C -0.991135 -1.484014 0.027411
C 5.037440 0.731820 -1.320195
C -0.310915 -1.373652 1.233953
C 5.972912 1.363666 -2.130209
C 6.415203 2.628815 -1.804088
C 5.922120 3.262556 -0.671680
H 0.208297 -7.476488 8.532072
H -1.319835 -5.693500 8.554577
H -1.558118 -4.327465 6.660552
H -6.238838 -0.590916 -5.025146
C -0.260066 -4.837432 -4.226348
H -4.474557 0.173014 -1.571369
C 0.923632 -4.139398 -4.414975
H -5.039725 2.133864 -0.451969
C 0.878934 -2.799168 -4.722480
H -5.616301 4.030568 -1.623760
C -0.330409 -2.139331 -4.844478
H -5.719949 3.982458 -3.965454
C -0.317629 -2.509341 2.202954
H -5.193420 2.005571 -5.111623
N -0.636624 1.504206 -2.589323
N -0.988138 -0.510732 -0.960544
N 0.698880 0.823229 0.744380
N 0.897009 2.636104 -1.119720
O 1.625401 -0.022342 -1.830374
H 1.089064 -0.618615 3.583776
H 2.345702 1.509891 3.409408
C 0.877984 -3.177197 2.543940
C 0.901006 -4.065046 3.606396
C -0.251565 -4.387238 4.328633