156
Mn1 H59 C91 N4 O1
H 1.695195 -2.191465 -4.807373
H 6.334954 4.118580 -0.429327
H -6.285356 -0.717994 -4.975758
H -0.384725 -1.173858 -5.041340
C 1.467768 4.563121 3.193243
H -3.031161 -2.772324 -1.999847
H -4.515737 0.134914 -1.521036
H -2.021343 -3.359066 0.177282
H -5.049769 2.109836 -0.421859
H -5.652401 3.993585 -1.630273
C 1.072627 4.402245 4.526625
H -5.798554 3.893589 -3.956778
C -0.179530 4.808847 4.956192
H -5.295337 1.906903 -5.080798
C 0.562511 5.133834 2.293171
H 0.805489 5.242065 1.380794
C -0.689861 5.543524 2.726560
C -1.057757 5.393088 4.056254
H -3.642528 -3.613468 -5.889256
H -7.647048 -2.756149 -4.852280
H -9.300977 -4.022275 -5.918733
H -8.837515 -5.066351 -7.955110
H -6.747836 -4.814891 -8.944967
H 1.785389 -4.479610 3.823150
H -5.081368 -3.561999 -7.876963
H -2.194456 -4.678132 -4.142776
H 1.334979 -3.107605 -0.135188
H -0.108776 -5.689856 -3.922261
H 3.295804 -2.789971 -1.357629
H 5.333613 -2.542922 -0.254122
H 5.377145 -2.441455 2.085620
C -0.273215 2.686431 -3.140215
C 0.833820 -6.367771 5.497948
C -0.943354 2.870247 -4.372822
C 0.994909 -7.194209 6.596527
C -1.763804 1.775878 -4.560412
C -1.597701 0.909589 -3.443488
C 6.207306 5.053984 4.401497
C 7.303653 4.274162 4.740327
C 8.219444 4.726203 5.688037
C 8.052201 5.948508 6.290894
C 6.971147 6.736418 5.955789
C 6.053030 6.296288 5.014354
H 1.838111 -4.438435 -4.195596
C 0.504632 -0.263894 1.585960
C 1.207769 -0.048314 2.808120
H -2.179973 -4.069332 4.431517
C 1.895827 1.119875 2.687168
C 1.627997 1.660295 1.397740
C 2.191584 2.828190 0.853144
C 1.844290 3.297730 -0.401531
C -0.993037 -1.494728 0.063969
C 2.228388 4.463125 -1.133382
C -0.274218 -1.378556 1.249264
C 1.501825 4.491065 -2.303321
C 0.677973 3.333611 -2.311456
H -2.464385 -0.347420 2.641190
H -4.630394 0.326083 2.142860
H -3.671164 -4.231090 2.598048
C -0.053425 -5.289872 5.513103
H -5.831794 -3.544353 2.042480
H -6.318172 -1.270913 1.828453
C 0.267631 -6.953042 7.742423
C -0.632007 -5.891319 7.785689
C -0.798608 -5.064881 6.666014
C -2.166633 -0.318451 -3.119937
C -1.864841 -0.994012 -1.930335
C -2.400963 -2.249845 -1.517164
C -1.857195 -2.566450 -0.319664
C -3.161299 -0.967102 -4.031912
C -4.452872 -0.422270 -4.135888
C 3.238320 3.518898 1.678722
C -5.416498 -1.093273 -4.893411
C 4.600955 3.339493 1.382108
C 0.989615 -4.029481 -4.312728
C -4.829459 0.830033 -3.419820
C 0.903424 -2.695122 -4.661632
C -0.335978 -2.091028 -4.799151
C -4.772561 0.900178 -2.021649
C -0.271667 -2.511747 2.227646
C -5.087332 2.071896 -1.370948
C -5.453697 3.183323 -2.084628
C 5.080985 2.628345 0.162369
C -5.534486 3.125237 -3.465311
C 4.646197 1.346925 -0.191190
C -5.136127 -2.291608 -5.526867
C -5.229909 1.947048 -4.133762
C -3.849588 -2.805264 -5.436580
C 6.031769 3.244497 -0.647706
C -2.848689 -2.165731 -4.696408
C 5.149349 0.718861 -1.318845
C 6.544375 2.606875 -1.767844
C 6.096895 1.343248 -2.112073
C -6.194569 -3.047902 -6.250902
C -7.456734 -3.181132 -5.680956
C -8.442896 -3.931102 -6.315366
C -8.168937 -4.545637 -7.525771
C -6.928418 -4.402701 -8.108353
C -5.935476 -3.655378 -7.473545
C -1.508382 -2.807323 -4.589543
C -1.405849 -4.164475 -4.269119
C -0.165497 -4.765628 -4.135889
C 0.925181 -3.184073 2.518937
C 0.958134 -4.075214 3.588894
C -0.181984 -4.394319 4.331188
C 2.157444 -2.935553 1.724379
C 2.154833 -2.964964 0.325740
C 3.325376 -2.791441 -0.407836
C 4.527373 -2.623801 0.242199
C 4.552899 -2.573803 1.634219
C 3.374691 -2.716444 2.369483
N -0.684299 1.497066 -2.591196
N -1.004273 -0.535942 -0.937823
N 0.748588 0.806799 0.730741
N 0.906787 2.628492 -1.165391
O 1.648287 -0.074196 -1.923220
C -1.387384 -3.820812 3.969855
C -1.459098 -2.867909 2.922434
H 1.196778 -0.616527 3.569956
H 2.457294 1.506918 3.347919
C -4.428640 -0.598881 2.220174
C -3.142293 -1.000336 2.510840
C -2.821576 -2.359105 2.614468
C -3.857129 -3.307597 2.478642
C -5.146614 -2.898790 2.168205
C -5.434621 -1.548843 2.040561
H 6.487723 3.718596 2.062065
H 3.615038 5.272946 4.419760
H 1.674426 4.006820 5.146982
H -1.300638 5.930273 2.109952
H -0.435455 4.687675 5.863991
H -1.910924 5.690577 4.350026
H 3.403096 -2.663505 3.318237
H 1.340773 -6.538352 4.712443
H 1.602493 -7.923592 6.558974
H 7.430047 3.428901 4.325890
H 8.965426 4.184754 5.919629
H 8.679171 6.250849 6.936686
H 6.855014 7.583149 6.370662
H 5.312856 6.846413 4.785174
H 0.380667 -7.511843 8.503860
H -1.132315 -5.726620 8.574876
H -1.422597 -4.348733 6.693455
Mn 0.333421 0.809446 -1.147137
H -0.846554 3.609776 -4.962763
H -2.336841 1.627502 -5.302223
H 2.871382 5.106776 -0.860072
H 1.544183 5.158245 -2.977988
C 5.569074 3.857855 2.257055
C 5.223316 4.566356 3.396088
C 3.867990 4.773848 3.653235
C 2.871785 4.266074 2.811210
H 4.000519 0.904001 0.345648
H 4.841261 -0.148899 -1.549940
H 6.436822 0.908413 -2.886493
H 7.202780 3.037740 -2.298790