20
H14 C6
H 0.154056 -0.879954 -2.132205
H -0.154056 0.879954 2.132205
H 1.546818 -0.821579 -1.351633
H -1.546818 0.821579 1.351633
H 0.298091 -1.228044 0.688129
H -0.298091 1.228044 -0.688129
H -1.033300 -0.985895 -0.170127
H 1.033300 0.985895 0.170127
H 0.770278 -2.959846 -2.420674
H -0.770278 2.959846 2.420674
H 0.030060 -3.152269 -1.014878
H -0.030060 3.152269 1.014878
H 1.623220 -3.000925 -1.066929
H -1.623220 3.000925 1.066929
C 0.641272 -1.221558 -1.340154
C -0.641272 1.221558 1.340154
C -0.072644 -0.756718 -0.100989
C 0.072644 0.756718 0.100989
C 0.777793 -2.713373 -1.472630
C -0.777793 2.713373 1.472630