180
H76 C96 N8
C -1.311383 1.621944 3.309584
C -1.510702 2.909176 1.312547
C -2.182940 -2.438390 -6.600975
C -1.340875 -0.272149 -6.433758
C -1.406020 -2.870074 -5.541800
C -3.134700 -0.713217 -8.037708
C -1.820850 -6.320419 -0.158505
C -1.410449 -5.286567 -0.947239
C 0.142983 -6.235960 1.064997
C 0.592134 -5.208363 0.290453
C -0.556116 -0.650654 -5.359994
C -1.566405 -7.893877 1.722163
H -3.389625 -1.441700 -8.625371
N -7.041524 1.202772 -3.410002
N -5.632718 -4.113512 4.645091
N -2.164400 -1.194952 -7.009088
N -1.047444 -6.781821 0.835701
H 3.389625 1.441700 8.625371
H 6.380628 0.771510 -1.028977
H 3.277955 0.037475 -3.430306
H 3.746729 -2.117911 -0.102769
H 5.361444 -2.844517 1.218458
H 6.350404 -3.064614 3.316094
H 7.628212 0.667453 3.176025
H 6.650902 0.963266 1.100777
H 8.339820 -0.781223 4.937544
H 4.184885 7.896786 -1.628683
H 7.727140 -2.226599 5.046246
H 5.671788 -2.571133 6.225703
H 3.914651 -1.753295 7.517662
H 5.160509 1.999057 6.849604
H 6.927925 1.142086 5.572627
H 6.560306 2.635651 -1.958528
H 6.797895 4.578699 -3.130170
H 4.534035 3.206772 -6.018243
H 1.984357 8.581553 -1.179885
H 4.242871 1.214034 -4.913668
H 0.833266 8.295171 -2.213385
H 5.247154 5.451874 -6.121199
H 6.377812 5.936189 -5.137258
H 5.792004 6.942045 -3.031182
H 1.291004 6.636972 -4.067477
H 1.096578 3.746424 3.037532
H -0.009032 0.027731 4.963724
H 2.885672 5.615273 -5.443667
H 1.626295 -0.960122 -3.882570
H 1.961393 -3.117730 -0.525426
H 2.735649 3.048488 7.033220
H 1.307632 -0.598602 6.759169
H 1.415079 3.762034 5.276253
H 2.735531 0.010135 8.573257
H 2.650753 6.710671 0.312910
H 1.971909 4.963477 1.612803
H -0.672740 6.558643 -1.758225
H -1.420908 4.831015 -0.476800
H -6.380628 -0.771510 1.028977
H -3.277955 -0.037475 3.430306
H -3.746729 2.117911 0.102769
H -5.361444 2.844517 -1.218458
H -6.350404 3.064614 -3.316094
H -7.628212 -0.667453 -3.176025
H -6.650902 -0.963266 -1.100777
H -8.339820 0.781223 -4.937544
H -7.727140 2.226599 -5.046246
H -5.671788 2.571133 -6.225703
H -3.914651 1.753295 -7.517662
H -5.160509 -1.999057 -6.849604
H -6.927925 -1.142086 -5.572627
H -6.560306 -2.635651 1.958528
H -6.797895 -4.578699 3.130170
H -4.534035 -3.206772 6.018243
H -4.242871 -1.214034 4.913668
H -5.247154 -5.451874 6.121199
H -6.377812 -5.936189 5.137258
H -5.792004 -6.942045 3.031182
H -1.291004 -6.636972 4.067477
H -1.096578 -3.746424 -3.037532
C 5.178530 -0.703833 -0.354485
H 0.009032 -0.027731 -4.963724
C 5.607307 0.294046 -1.227032
C 4.909550 0.589656 -2.383121
H -2.885672 -5.615273 5.443667
C 3.754174 -0.150151 -2.653749
H -1.626295 0.960122 3.882570
C 3.285759 -1.151158 -1.813570
H -1.961393 3.117730 0.525426
C 4.024041 -1.434255 -0.667859
H -2.735649 -3.048488 -7.033220
C 5.877065 -0.894650 0.944495
C 5.802951 -2.124011 1.608230
H -1.307632 0.598602 -6.759169
C 6.396107 -2.255393 2.859440
H -1.415079 -3.762034 -5.276253
C 7.156679 -0.029717 2.779449
C 6.574690 0.145459 1.538620
H -4.184885 -7.896786 1.628683
H -2.735531 -0.010135 -8.573257
H -2.650753 -6.710671 -0.312910
C 7.529449 -1.302873 4.826518
H -1.971909 -4.963477 -1.612803
C 6.435467 -0.769524 5.741233
H 0.672740 -6.558643 1.758225
C 5.562100 -1.654789 6.339809
H 1.420908 -4.831015 0.476800
C 4.360203 0.181432 7.288537
C 4.511194 -1.163670 7.116757
C 5.254720 1.082339 6.721988
C 6.307733 0.561502 5.948834
C 5.282312 1.745506 -3.231166
H -1.984357 -8.581553 1.179885
C 6.104247 2.748076 -2.761329
H -0.833266 -8.295171 2.213385
C 6.250536 3.908619 -3.471481
C 4.914682 3.095301 -5.176748
C 4.726094 1.903477 -4.519229
C 5.522585 5.482076 -5.191465
C 4.500005 6.198422 -4.368743
C 4.888993 6.864717 -3.238445
C 3.923316 7.432475 -2.391583
C 2.587878 7.299529 -2.693185
C 1.566405 7.893877 -1.722163
C 2.193455 6.672336 -3.842108
C -0.146986 2.308572 3.640544
C -0.340610 3.611445 1.630656
C 0.320763 3.287682 2.808935
C 2.019605 -1.903477 -2.140384
C 0.602092 1.931630 4.874656
C 0.149622 4.709424 0.761297
C 0.556116 0.650654 5.359994
C 3.151995 6.081116 -4.683442
C 1.311383 -1.621944 -3.309584
C 1.510702 -2.909176 -1.312547
C -5.178530 0.703833 0.354485
C -5.607307 -0.294046 1.227032
C 2.182940 2.438390 6.600975
C -4.909550 -0.589656 2.383121
C -3.754174 0.150151 2.653749
C 1.340875 0.272149 6.433758
C -3.285759 1.151158 1.813570
C 1.406020 2.870074 5.541800
C -4.024041 1.434255 0.667859
C 3.134700 0.713217 8.037708
C -5.877065 0.894650 -0.944495
C 1.820850 6.320419 0.158505
C -5.802951 2.124011 -1.608230
C 1.410449 5.286567 0.947239
C -6.396107 2.255393 -2.859440
C -0.142983 6.235960 -1.064997
C -7.156679 0.029717 -2.779449
C -0.592134 5.208363 -0.290453
C -6.574690 -0.145459 -1.538620
C -7.529449 1.302873 -4.826518
C -6.435467 0.769524 -5.741233
C -5.562100 1.654789 -6.339809
C -4.511194 1.163670 -7.116757
C -4.360203 -0.181432 -7.288537
C -5.254720 -1.082339 -6.721988
C -6.307733 -0.561502 -5.948834
C -5.282312 -1.745506 3.231166
C -6.104247 -2.748076 2.761329
C -6.250536 -3.908619 3.471481
C -4.914682 -3.095301 5.176748
C -4.726094 -1.903477 4.519229
C -5.522585 -5.482076 5.191465
C -4.500005 -6.198422 4.368743
C -4.888993 -6.864717 3.238445
C -3.923316 -7.432475 2.391583
C -2.587878 -7.299529 2.693185
C -2.193455 -6.672336 3.842108
C 0.146986 -2.308572 -3.640544
C 0.340610 -3.611445 -1.630656
C -0.320763 -3.287682 -2.808935
C -2.019605 1.903477 2.140384
C -0.602092 -1.931630 -4.874656
N 5.632718 4.113512 -4.645091
C -0.149622 -4.709424 -0.761297
N 7.041524 -1.202772 3.410002
N 2.164400 1.194952 7.009088
N 1.047444 6.781821 -0.835701
C -3.151995 -6.081116 4.683442