112
P1 H40 Rh1 C64 N4 O2
H 3.965365 2.347194 2.463907
H 5.544365 3.440370 3.701123
H 5.075409 3.855682 5.942008
H 3.067796 3.177817 6.840319
H -4.810260 -0.507477 -1.921670
H -4.804731 1.800605 -0.927716
H 1.511721 2.020195 5.544966
H 3.395378 -6.844558 2.637900
H -6.547660 4.232804 2.011978
H 1.979858 -4.989977 2.588782
H -5.041139 2.433120 1.897526
H 2.087498 6.051582 0.276538
H 0.503661 6.454959 -1.318516
H -5.059210 -3.347826 -4.826428
H -6.276283 -4.963722 -3.679344
H -5.899413 -5.314588 -1.431764
C -1.206790 3.445621 2.511806
C -0.031909 3.170656 3.112202
C 0.413557 1.898228 2.609368
C 1.631011 1.294594 2.950335
C 2.036128 0.045079 2.496566
C 3.259910 -0.611304 2.885483
C 3.292558 -1.810457 2.276123
C 2.590039 2.048360 3.819756
C 3.803003 2.471548 3.297671
C 4.722455 3.147981 4.078724
C 4.442738 3.399316 5.400436
C 3.260085 2.993313 5.928155
C 2.327811 2.309720 5.155288
C -5.422332 5.524327 0.962698
C -5.719004 4.342599 1.560213
C -4.821730 3.265175 1.492920
C -4.892835 -3.502255 -3.904243
C -5.618291 -4.451265 -3.223685
C -5.390795 -4.662263 -1.897661
P 0.614706 0.535576 -1.098599
H 0.544398 -5.240596 -0.588692
H -1.704835 -4.794256 -1.512744
H -2.543511 4.741202 -0.199366
H -6.026811 6.254464 1.013958
H 3.615089 -3.851451 -0.918522
H 5.045546 -5.708418 -0.817129
H 4.949801 -7.162009 0.967334
H -3.422034 -2.111438 -3.716976
H -4.267086 -4.090135 -0.300850
H -1.528458 1.354265 -3.175195
H -2.194663 3.502428 -3.866646
H -1.216313 5.402359 -3.041077
H 2.669035 3.877163 0.953312
H 3.689810 0.662079 -0.777068
H 5.355842 -0.593403 -1.856285
H 4.832556 -2.273744 -3.349509
H -0.913794 -2.517203 -3.894294
H 0.682252 -3.930217 -4.894278
H 2.932896 -3.667663 -4.550320
Rh -0.414224 -0.348274 0.717314
C -1.505726 2.364618 1.622716
C 2.087569 -1.930993 1.504434
C 1.710389 -3.063075 0.796225
C 0.499389 -3.213446 0.123397
C 0.061525 -4.423578 -0.528224
C -1.161214 -4.178687 -1.036418
C -1.492649 -2.817707 -0.728268
C -2.662729 -2.167768 -1.136640
C -2.963021 -0.834713 -0.877103
C -4.145467 -0.151598 -1.344927
C -4.129616 1.086699 -0.812252
C -2.953612 1.187186 0.010927
C -2.639728 2.277975 0.811724
C -3.611727 3.423423 0.855731
C -3.362310 4.605390 0.262340
C -4.301958 5.638657 0.319273
C 2.643714 -4.240507 0.827159
C 3.562800 -4.452459 -0.185313
C 4.419232 -5.554944 -0.118744
C 4.354752 -6.421370 0.927525
C 3.450309 -6.226603 1.917143
C 2.597236 -5.129130 1.879373
C -3.678198 -2.971658 -1.895724
C -3.923708 -2.762332 -3.242017
C -4.421853 -3.931649 -1.224875
C -0.134361 2.017570 -1.856614
C -1.117708 2.128081 -2.806131
C -1.508200 3.417456 -3.215240
C -0.934637 4.553596 -2.718273
C 0.067935 4.482468 -1.724034
C 0.427025 3.179010 -1.322543
C 1.409181 2.950589 -0.337024
C 2.019298 4.012020 0.273231
C 1.655507 5.310943 -0.134611
C 0.719871 5.560130 -1.084334
C 2.133606 -0.246833 -1.728564
C 3.454069 -0.005761 -1.410436
C 4.442880 -0.769314 -2.049151
C 4.134723 -1.774893 -2.941122
C 2.783732 -2.067282 -3.254029
C 1.826921 -1.259572 -2.635700
C 0.446648 -1.401351 -2.889106
C 0.011962 -2.393564 -3.721715
C 0.979712 -3.230870 -4.324199
C 2.317378 -3.086943 -4.117217
N -0.506529 1.416084 1.712237
N 1.331553 -0.781248 1.650743
N -0.472364 -2.247011 -0.009348
N -2.244744 0.014050 -0.072016
O 1.647043 1.643073 -0.118550
O -0.306597 -0.483369 -2.255073
H -1.740107 4.218482 2.652724
H 0.416927 3.714858 3.747592
H 3.926241 -0.259244 3.464181
H 3.982787 -2.459918 2.345820
H -4.108079 6.462120 -0.114052