100
Al1 H55 C38 N2 O4
C 2.700963 1.619394 -0.611486
C 1.865374 2.777653 -0.502667
C 0.524891 2.662415 -0.041415
C -0.229193 3.845367 0.140084
C 0.384669 5.045957 -0.188516
C 1.697468 5.188241 -0.653729
C 2.430212 4.026455 -0.786963
C -1.662000 3.794803 0.687159
C -2.559798 2.990490 -0.250931
C -1.650392 3.171578 2.086719
C -2.256218 5.208231 0.828595
C 2.256973 6.579327 -0.980278
C 1.523432 7.127294 -2.197394
C 2.013525 7.545914 0.181416
C 3.750359 6.527587 -1.327399
C -3.337666 -0.127988 2.289998
H -1.636253 -0.812360 -4.686101
N 2.321159 0.403517 -0.464195
O 0.014213 1.466175 0.242332
O -0.234841 -0.137983 -1.971119
H 1.684455 6.541698 -2.967176
H 2.477382 -1.807168 -1.907120
H 3.091013 -3.949652 -1.141895
H 3.750303 -3.305261 0.170965
H 4.665117 -2.843133 -2.529336
H 5.840445 -1.756605 -0.162097
H 5.469497 -3.681548 -1.427140
H 3.596447 -0.845285 0.530980
H 6.361164 -1.497908 -1.652419
H 1.456648 -3.793258 0.310382
H -3.866235 -3.790906 2.025045
H -0.167134 -5.166705 1.331694
H -2.928118 -0.279679 -0.398988
H -4.039035 -1.370911 -0.768674
H -3.326479 -0.499571 3.196165
H -5.376412 -2.452736 1.017451
H -5.761699 -0.996976 1.559521
H -5.130982 -2.081152 2.553796
H -2.455843 -1.006383 -3.325873
H -1.684303 -7.891258 2.835475
H -0.680399 -6.655390 2.988924
H -0.983446 -7.264505 1.540294
H -3.119047 -6.695371 0.390682
H -4.319708 -6.099191 1.265654
H -3.767192 -7.571414 1.563945
H -4.017724 -5.383070 3.577603
H -2.604894 -5.575917 4.303972
H -3.513346 -6.850589 3.969380
C 2.655005 -1.935341 -0.931926
C 3.550486 -3.148866 -0.785677
C 4.862878 -2.910159 -1.562587
C 5.550902 -1.644895 -1.102926
C 4.643896 -0.413731 -1.205069
C 3.349830 -0.690067 -0.426472
C 0.888238 -3.032453 0.304882
C -0.411844 -3.171208 0.900186
C -1.305436 -2.087032 0.955668
C -2.658196 -2.338674 1.341790
C -2.971877 -3.625105 1.750697
C -2.078172 -4.699874 1.788679
C -0.799864 -4.458815 1.342724
C -3.707353 -1.230979 1.289538
C -3.796368 -0.655966 -0.143480
C -5.123248 -1.736615 1.636309
C -2.528686 -6.096839 2.257096
C -0.442215 -0.852340 -3.031670
C -1.710960 -0.531321 -3.750095
Al 0.413889 -0.189605 -0.322601
H 4.432384 -0.227939 -2.155340
H 5.103257 0.377648 -0.826865
H 3.618396 1.765206 -0.808113
H -0.130628 5.838512 -0.090303
H 3.334282 4.075843 -1.076287
H -2.480599 3.344435 -1.161596
H -3.490138 3.059868 0.048073
H -2.283180 2.049773 -0.241550
H -1.292353 2.261434 2.035193
H -2.564052 3.144532 2.439990
H -1.086711 3.711315 2.679781
H -1.715779 5.727977 1.459321
H -3.176105 5.144733 1.159938
H -2.253699 5.652720 -0.045314
H 1.851260 8.028031 -2.399078
H 0.562028 7.163747 -2.010831
H 2.358082 8.432540 -0.053229
H 2.472733 7.216663 0.981753
H 1.050525 7.605884 0.359637
H 3.895597 5.891427 -2.057615
H 4.260005 6.241844 -0.540190
H 4.052555 7.417741 -1.605663
H -4.476865 0.048397 -0.171676
C -1.365942 -7.062251 2.419354
H -3.998875 0.592837 2.239392
H -2.451063 0.225957 2.072046
N 1.344926 -1.955331 -0.237583
C -3.519565 -6.664797 1.285422
C -3.232629 -5.963963 3.659734
H -1.873525 0.434091 -3.710625
O -0.910719 -0.861983 0.650256
O 0.337526 -1.683699 -3.439933