11
H5 C5 N1
C 0.359579 0.221205 1.298665
C 0.010500 -0.989968 0.843527
H -0.618321 -0.412603 -2.154427
H -0.034276 1.732232 -1.533442
H 0.609018 2.152028 0.694974
H 0.600337 0.347026 2.207990
H 0.018276 -1.710793 1.462623
N -0.344812 -1.260425 -0.398357
C -0.359870 -0.246802 -1.255395
C -0.015491 1.029046 -0.894832
C 0.359140 1.279512 0.415718