12
H5 C6 Cl1
H 0.790939 -1.693490 0.770188
Cl -0.889237 0.191385 1.940755
H 1.708820 -1.903467 -1.334052
H 1.353953 -0.290907 -2.970741
H 0.037784 1.493901 -2.497428
H -0.964206 1.741609 -0.381474
C -0.164123 0.047026 0.374785
C 0.630788 -1.052075 0.115153
C 1.178816 -1.165265 -1.138088
C 0.965277 -0.202322 -2.130427
C 0.186602 0.850845 -1.842832
C -0.418182 1.011609 -0.569060