170
Zn1 H87 Pt1 C73 N6 O2
C -2.773074 -3.026080 8.699039
H 7.198468 -4.206217 -3.100580
H 5.827266 -4.394930 -3.905426
H 5.887496 -3.408975 -2.645148
H -1.456819 2.721450 4.556470
H -0.954074 5.013350 -0.220803
H -0.621868 4.181921 -2.522185
H -3.673736 -3.868449 5.606704
C 2.552569 -2.377893 8.755077
H -3.882793 -2.451737 6.320784
H 2.631968 1.373112 -8.250066
H 0.932539 2.324880 -7.015640
H -3.802744 -3.206587 -0.584679
H -3.668463 -2.573443 2.617842
C 0.458126 0.149215 -2.629037
H -3.376053 -1.025453 2.338840
C 1.271438 -0.514014 -3.642418
H -4.507965 -1.788508 1.502229
C 1.746630 -1.650392 -3.071700
C 1.257455 -1.709194 -1.745959
C 1.535545 -2.747113 -0.836604
C 1.241241 -2.751216 0.521380
C 1.556320 -3.821954 1.416016
C 1.114189 -3.455469 2.642998
C 0.548522 -2.134481 2.512074
C -0.017010 -1.400143 3.561938
C -0.499953 -0.091462 3.450384
C -2.545196 -3.674266 7.338026
C -0.037954 -2.033287 4.913353
C -1.232863 -2.469514 5.484323
C -1.255726 -3.131376 6.714942
C -0.031773 -3.333763 7.357823
C 1.185803 -2.897536 6.826244
C 1.164573 -2.253452 5.602031
C -2.407658 -5.201744 7.526632
C 2.529842 -3.149153 7.551296
C 1.637544 -0.012148 -4.958527
C 2.680368 -0.611105 -5.678616
C 3.057048 -0.113342 -6.915515
H 0.698514 4.542936 3.200552
C -2.559459 -2.276699 0.841415
C -2.921683 -3.393932 -0.196893
C 2.649791 -4.636974 7.746797
C 3.698310 -2.708824 6.605815
H 0.168666 8.773927 4.535057
C 2.314737 -3.998360 -1.321380
H -0.296197 8.008137 5.860801
C 1.493070 -5.044484 -1.712967
H 1.200693 8.563335 5.740855
C 2.024024 -6.204109 -2.225232
H 0.542107 5.613675 6.301991
C 3.413301 -6.309405 -2.327272
H 1.542039 4.942241 5.248444
C 4.289172 -5.331655 -1.945592
H 2.063359 6.104601 6.216132
C 3.681908 -4.167927 -1.428564
H 2.776321 7.481656 3.977052
C 1.108771 -7.388349 -2.620045
H 2.307434 6.125114 3.266905
C 1.455414 -8.619083 -1.763644
H 1.672336 7.524048 2.818047
C 1.390684 -7.787654 -4.079336
H -3.081056 3.087935 -7.241910
H -2.373881 3.399721 -3.430806
C -0.389062 -7.049213 -2.464939
C 5.832466 -5.431481 -2.078080
H -3.086388 1.976172 -3.652355
C 6.166620 -6.803066 -2.741909
H -4.646900 4.253030 -6.068276
C 6.405576 -5.311143 -0.664469
H -4.992147 3.588434 -4.654228
C 6.222209 -4.251344 -3.019599
H -4.035108 4.869765 -4.722925
Pt -0.731004 1.856243 -4.625535
C -0.921962 0.726293 4.552776
C -1.171003 1.963864 4.061015
C -0.919953 1.911900 2.638747
N 0.510987 -0.593328 -1.470732
C -1.006944 3.008621 1.779650
N 0.621114 -1.724236 1.201800
C -0.790642 2.964861 0.389573
N -0.530147 0.651081 2.287988
C -0.825700 4.109444 -0.480067
C -0.641442 3.654073 -1.734089
C -0.480506 2.222318 -1.667905
C -0.180021 1.403196 -2.770253
O -2.208388 -0.987163 0.089921
C -3.781431 -3.415812 6.468080
H -3.111726 4.690624 1.827049
H -1.670675 7.697719 4.129775
C 2.388530 1.001157 -7.410352
C 1.377521 1.557722 -6.672580
H -2.958550 8.901103 2.848515
H -3.380311 8.404707 1.384838
H -4.475352 9.046056 2.361342
H -0.026081 -3.786400 8.193930
H -5.857807 6.789710 1.953879
H -4.640859 6.274169 1.051110
H -5.140213 5.401715 2.294936
C -3.629066 -1.877394 1.928160
H -4.376757 6.298784 4.800857
H -4.038493 7.861816 4.824043
H -1.645854 -5.390457 8.113591
H -5.477395 7.362685 4.335001
H -3.226957 -5.555922 7.930134
H -2.880476 -2.057902 8.589042
H -2.003577 -3.203852 9.280744
C -1.177720 4.423965 2.412522
C -0.322151 6.209898 3.779809
C -0.137820 4.990103 3.141654
H 3.449534 -2.412080 9.146830
H 2.319071 -1.448005 8.552710
H 1.903890 -2.747113 9.389617
H 1.942495 -4.943290 8.352320
C 0.895127 6.840307 4.639046
C 0.452371 8.164030 5.247111
H 3.525920 -4.844831 8.134149
C 1.297862 5.777773 5.700269
C 2.016588 7.008507 3.576645
N -0.540111 1.827116 -0.356159
N 0.984721 1.058591 -5.474549
O -1.537075 2.208644 -6.569578
Zn -0.294618 -0.086129 0.373130
H 2.308732 -2.293109 -3.487666
H 1.992689 -4.635607 1.194785
H 1.167164 -3.971010 3.438410
H -1.009145 0.451429 5.458872
C -2.618274 2.839053 -6.449894
H -2.049481 -2.313621 5.026276
C -2.512679 2.662648 -4.076673
C -4.298549 4.041070 -5.177767
H 1.980792 -1.952606 5.219890
H -4.577929 -3.763153 6.923304
H -2.260642 -5.625664 6.656361
H -3.582318 -3.399402 9.109400
H 3.132416 -1.364588 -5.317977
H 3.752882 -0.523586 -7.415287
H -1.737197 -2.573443 1.327029
C -2.400818 5.077622 2.324217
H -2.248100 -3.410342 -0.907932
H -2.942501 -4.265019 0.255026
C -2.585150 6.297416 2.964886
C -1.545249 6.863554 3.694018
C -3.992617 7.063207 2.893029
C -3.672257 8.486756 2.317790
C -5.002112 6.312459 1.961940
C -4.519664 7.154828 4.346804
H 2.559400 -5.088243 6.882753
H 3.723126 -3.296841 5.820939
H 3.554468 -1.784405 6.314964
H 4.549154 -2.771728 7.085932
H 0.550449 -4.956965 -1.627765
H 3.773240 -7.113485 -2.686421
H 4.244682 -3.460939 -1.138369
H 1.295950 -8.415328 -0.818751
H 0.893975 -9.373934 -2.036282
H 2.399519 -8.851555 -1.894701
H 2.343761 -7.990041 -4.185719
H 0.860940 -8.579426 -4.308825
N -3.142927 3.169984 -5.303806
H 1.145776 -7.047846 -4.673638
H -0.572504 -6.179494 -2.875456
H -0.928396 -7.739792 -2.905857
H -0.618471 -7.015026 -1.510820
H 5.775346 -7.526465 -2.207930
H 5.795101 -6.826314 -3.646414
H 7.139563 -6.916567 -2.782954
H 6.038703 -4.513901 -0.229133
H 6.162948 -6.107018 -0.145115
H 7.381234 -5.238666 -0.712373