159
Ni1 H80 Pt1 C70 N6 O1
Ni 0.217275 -0.191724 -0.416472
N 0.696711 0.548897 -2.103312
H -1.223115 -3.081840 3.390854
N 1.458318 0.972329 0.446655
H -2.918811 -3.945641 -1.554048
H -2.917592 -2.544466 -3.553480
C 6.474483 5.751721 -4.608105
H 0.304929 1.352648 -5.175333
C 4.591459 6.433831 -3.138391
H -3.492705 -3.255832 2.193359
H -4.067489 -7.189900 1.960095
H -1.032064 -5.506950 -0.010556
H -3.961433 -8.487911 -0.361305
H -3.028534 -9.732031 -0.155605
H -3.679488 -9.025285 1.084068
H -1.513916 -8.726573 2.142927
H 4.190463 2.593688 0.776219
H -0.768093 -9.410223 0.943440
H 2.845555 2.570592 2.829280
H -0.345302 -7.975173 1.414700
Pt 0.148282 1.962975 4.374768
H -0.587435 -7.411624 -0.971142
H -1.332147 -8.709635 -1.436836
C -0.546189 -1.150990 3.577884
H -2.007984 -7.308461 -1.625367
H -2.717865 1.489686 -4.343427
H -3.779877 0.031540 -7.914235
H -0.683295 6.714066 4.690003
H -1.194512 -1.996314 -5.614302
H -1.083776 6.225965 3.254303
H -4.848390 3.914796 -5.479168
H -4.638341 2.739965 -4.461051
H -3.398821 3.448251 -5.110961
H -6.358816 2.381202 -6.738963
H -5.840407 0.953852 -7.123442
H -6.055472 1.331091 -5.617160
H -3.026222 3.200351 -7.568302
H -3.947592 2.236466 -8.393230
H -4.520695 3.586829 -7.840699
H -2.828925 -2.561403 -9.985447
H -3.959133 -1.862356 -9.153989
H -2.721896 -1.033969 -9.646588
H -2.696134 -4.248972 -8.154162
H -2.318509 -3.805523 -6.697302
H -3.738643 -3.476016 -7.275798
H -0.444719 -1.522070 -8.655441
H -0.314710 -2.647629 -7.571203
H -0.671199 -3.021789 -9.051663
H 0.599206 1.129384 7.176809
H 0.915933 3.933273 2.998609
H -6.161042 -3.609975 4.293408
H -4.639388 -3.312803 4.066348
C -0.377658 -0.975458 5.021844
H -5.674430 -3.017170 2.928006
C -0.672057 -2.025569 5.888285
H -5.159849 -6.983573 3.772867
C -0.451696 -1.890071 7.243494
H -4.675805 -5.950399 4.846361
C 0.047117 -0.692144 7.729060
H -6.207464 -6.122851 4.559116
C 0.273949 0.324093 6.846018
H -6.411087 -4.626212 1.341084
C -0.509514 4.401358 5.617143
H -6.392662 -6.161345 1.660719
H -7.304893 -5.198999 2.496004
H 2.451277 2.122524 -4.268019
C -0.112695 -0.262553 2.523827
C -0.946956 -2.302725 2.964656
C -0.864872 -2.102557 1.562423
C -1.427154 -2.941722 0.594108
N 0.051515 0.222469 5.516807
C -1.530897 -2.556784 -0.728286
N -0.311381 4.778597 4.388819
O -0.405538 3.208050 6.011028
C -2.425355 -3.168066 -1.682630
C -2.412615 -2.410508 -2.782556
C -1.470767 -1.344999 -2.551586
C -1.107274 -0.376494 -3.479280
C -0.029505 0.468830 -3.277347
H 0.425016 6.460007 3.609958
C -0.422291 6.162835 3.947505
C -2.137506 -4.187382 1.026597
C -3.243279 -4.090378 1.868857
C -3.981147 -5.203619 2.231700
C -3.583518 -6.432341 1.720983
C 3.354167 2.201051 0.883975
C -2.496110 -6.580158 0.869097
C 2.625776 2.162558 2.022324
C -1.775150 -5.434582 0.543639
C 1.454340 1.378824 1.760382
C -5.252951 -5.049643 3.096202
C 0.554362 0.956931 2.742787
C -2.087667 -7.959776 0.321979
C -3.302689 -8.888247 0.211705
C -1.086251 -8.574137 1.295828
C -1.443963 -7.836596 -1.055055
H 3.243779 3.914796 -2.794343
C -1.859548 -0.276410 -4.778537
C -2.668494 0.827592 -4.993248
H 7.203389 3.713088 -3.336695
C -3.408004 0.963090 -6.167075
H 5.323654 0.842990 -1.272552
C -3.286082 -0.042368 -7.129141
H 3.300150 4.866363 -4.908869
C -2.464873 -1.143291 -6.966936
C -1.745803 -1.260312 -5.757746
H 4.507042 4.372103 -5.777098
C -4.330857 2.167177 -6.397173
H 6.837743 5.051133 -5.154427
C -4.301689 3.157238 -5.257820
C -5.783354 1.660598 -6.477673
C -3.918689 2.860066 -7.663007
C -2.275271 -2.228817 -8.035481
C -3.014448 -1.890071 -9.324055
C -2.807073 -3.565322 -7.489913
H 8.244595 2.353487 -0.246816
C -0.787534 -2.368934 -8.357165
H 9.549333 1.885402 -0.977834
H 8.811370 3.186493 -1.447908
H 8.759381 2.307294 -3.714242
H 9.419636 0.949233 -3.289900
H 8.045154 0.950772 -4.043331
H 7.260790 -0.473499 -2.158862
H 8.606388 -0.291808 -1.376140
H 7.245240 0.088511 -0.696807
H 4.127853 5.891838 -5.755691
H 6.353996 6.543154 -5.139853
H 7.077405 5.939571 -3.885126
H 5.170218 6.535455 -2.378763
C -5.450714 -3.609975 3.648513
H 4.566900 7.256059 -3.634058
C -5.331817 -6.125931 4.168095
H 3.707154 6.213647 -2.838641
C -6.463704 -5.282146 2.039376
C 0.055799 3.728486 3.398707
N -0.298996 -0.867675 1.296916
N -0.948659 -1.435844 -1.284841
C 0.624632 1.207911 -4.315293
C 1.794488 1.654439 -3.806312
C 1.841256 1.277200 -2.420568
C 2.811537 1.631343 -1.496172
C 2.592182 1.525100 -0.125078
C 4.086894 2.262642 -1.981692
C 4.053515 3.471347 -2.683230
C 5.223360 4.024118 -3.223527
C 6.417503 3.352786 -2.994422
C 6.490393 2.157938 -2.270506
C 5.301167 1.631343 -1.765054
C 5.123059 5.308272 -4.041917
C 4.175825 5.089627 -5.231864
C 7.854600 1.475828 -2.062550
C 8.691911 2.301135 -1.093020
C 8.587542 1.415778 -3.402621
C 7.730602 0.073113 -1.524283
H -1.018814 -2.820082 5.552244
H -0.636019 -2.592198 7.823124
H 0.224183 -0.582821 8.635299
H -0.742319 5.049594 6.240936
H -0.609157 3.685373 2.693915