73
P2 H33 Ru1 C33 N1 Cl3
H -2.908241 -1.685994 -0.436919
C -3.173029 -1.488143 0.430622
P 0.446884 -1.793098 0.244972
C 3.387750 0.032763 0.568881
H 3.355787 1.101598 -1.198841
C -0.611326 -3.093054 0.963486
H -0.438979 -2.443131 2.865942
C 2.714030 0.558891 -0.715207
H 3.584539 3.080103 -0.567206
C -0.843838 -3.090843 2.334718
Cl -1.529152 0.146831 -1.783043
H -1.814622 -4.010461 3.836351
H -2.444471 0.382041 2.845776
H 4.465075 4.949182 0.482125
Cl 0.229727 0.515120 2.551983
C -1.662016 -4.031462 2.919192
H -2.795433 -5.635267 2.546431
C 1.856369 2.997205 0.491270
H 3.268047 6.029070 2.113835
H 2.061618 -2.937205 1.480493
Cl -1.867266 2.395474 0.653515
H -2.435071 -5.686111 0.272801
C -2.247683 -4.995292 2.149575
C 3.101967 3.501226 0.107787
H 1.190483 5.260879 2.714067
H 1.782730 -1.552251 2.142482
H -1.087631 -4.088938 -0.723098
C -2.035226 -5.026241 0.793066
H 0.322481 3.336535 1.758185
C 3.627156 4.630853 0.729198
C -1.223001 -4.071253 0.196427
H 1.657386 -4.262472 -0.452300
H 3.982504 -1.743470 1.388486
H 1.920607 1.037490 -3.238615
C 2.913952 5.274143 1.701687
P 1.198943 1.551570 -0.441393
C 1.015002 -2.547030 -1.329236
H 3.468596 -1.904845 -0.079292
H 2.537923 -5.234039 -2.352202
C 1.679948 4.806597 2.066727
H 1.591581 2.169327 -5.235546
C 1.956017 -1.991060 1.293646
C 1.613516 -3.812610 -1.266034
C 1.149433 3.659285 1.483348
H 2.421980 -4.133150 -4.374349
H 0.400820 4.138990 -5.265595
C 3.287162 -1.472669 0.769322
C 2.138704 -4.396214 -2.404166
C 0.931649 2.347282 -2.064042
H 1.441169 -2.060694 -4.493145
H -0.495384 4.962446 -3.333438
N -2.468287 -0.578473 1.127193
H 0.551232 -1.068126 -2.616021
C 2.071019 -3.739660 -3.608614
C 1.443049 1.834418 -3.245698
H -0.144423 3.889190 -1.323823
C 1.483159 -2.502818 -3.676111
H 2.487785 -0.199352 -1.276379
C 1.242187 2.511973 -4.445187
Ru -0.646391 0.372535 0.361693
C 0.952331 -1.904845 -2.552718
C -2.899467 -0.267881 2.360286
C 0.527730 3.683602 -4.465715
H 4.324064 0.280353 0.551057
C -3.991520 -0.879118 2.930744
H -4.268216 -0.641476 3.786094
C 0.004736 4.178781 -3.312391
H 2.982891 0.474887 1.331249
C 0.206225 3.531069 -2.106266
C -4.675581 -1.849580 2.223587
H -5.396305 -2.297230 2.605859
H -4.728852 -2.764777 0.438392
C -4.268529 -2.138066 0.946907