128
Zn1 H45 C73 N5 Cl4
C -0.896566 0.987926 -5.322078
C -1.322708 2.061435 -6.086203
C -1.800752 1.851482 -7.379607
C -1.832166 0.594264 -7.907626
C -1.397829 -0.455501 -7.187908
C -0.965131 -0.287038 -5.878344
H -5.409301 -2.355075 5.307647
H -6.448705 -4.037198 4.161948
H -5.809492 -4.548334 2.008536
H -4.115851 -3.341104 1.037016
H 1.001951 -3.403590 5.767038
C 0.493859 2.776275 2.231671
C 0.870831 4.088481 2.495195
C 0.548492 5.070761 1.567314
C -0.087989 4.755832 0.372049
C -0.455400 3.432378 0.143317
N -2.137158 -0.059090 -0.131464
N 0.030293 1.016919 -1.682873
N -0.223753 -0.826543 1.887484
Zn -0.156964 0.443298 0.275718
N -0.171305 2.433852 1.066833
H -3.166592 3.223675 -3.215849
Cl -5.655425 0.989301 -1.609208
H -4.682674 3.809794 -4.862131
Cl -5.800204 -0.332653 1.310885
C 2.414229 1.675272 -1.628446
H -5.687932 2.167662 -6.131691
C 2.681934 1.355344 -0.286194
C 2.422425 -4.813274 5.606542
H -5.188035 -0.028097 -5.773033
H -3.682879 -0.635460 -4.123014
C 3.755484 1.852732 0.551789
C 3.237831 -5.466878 4.721390
H -3.655563 -1.175339 4.324663
C 3.703582 1.181632 1.722996
C 3.198222 -5.159447 3.373726
C 2.563106 0.283084 1.664305
C 2.322718 -4.170918 2.928121
C 2.127403 -0.632961 2.617472
H -1.385537 -1.302811 -7.570996
C 4.241723 -1.529010 6.225325
H -1.552169 -3.291115 5.583911
C 4.744352 -1.958914 5.033897
H -2.215967 -5.320661 6.491257
C 4.106505 -1.635236 3.841552
H -2.562891 -7.151501 5.110144
H -2.246016 -6.954045 2.821684
H -1.582218 -4.924499 1.910705
H 1.669847 0.040638 5.095832
H 1.579701 2.765028 -5.960123
H -1.289928 2.923742 -5.736966
C 2.934614 -0.901651 3.854373
H -2.099871 2.572571 -7.884038
C 2.451107 -0.462999 5.067422
H -2.155870 0.463043 -8.770091
C 3.114905 -0.761682 6.250440
H -0.721739 -1.027873 -5.371683
C 3.388073 2.500087 -2.401720
C 3.034321 3.767303 -2.814799
C 3.920751 4.548378 -3.547647
C 0.877660 -1.290314 2.557990
H 0.693271 2.113924 2.852220
C 5.166397 4.033493 -3.892901
C 0.540297 -2.500043 3.278052
H 1.329753 4.303433 3.274999
C 5.516052 2.781274 -3.477239
C -0.803689 -2.696249 3.117716
H 0.762929 5.956813 1.750610
C 4.644646 2.020195 -2.726365
C -1.281733 -1.626488 2.263605
H -0.265548 5.413184 -0.259970
C 2.086428 1.219124 -4.777446
H -0.899298 3.212427 -0.642806
C 2.168378 2.050188 -5.868999
C -2.612061 -1.387792 1.876773
C 3.143588 1.811491 -6.846126
C 4.045042 0.800468 -6.706706
C 3.949433 -0.033095 -5.643004
C 2.961931 0.158112 -4.703913
C -2.995862 -0.551729 0.816482
C -4.342580 -0.204307 0.413090
C -3.692440 -2.157619 2.571109
C -4.263361 0.395559 -0.792893
C -4.085802 -1.851438 3.854166
C -2.867473 0.463043 -1.162812
C -5.136133 -2.563778 4.445028
C -2.315674 0.880450 -2.397213
C -5.760322 -3.561055 3.755797
C -0.937541 0.997924 -2.655780
C -5.384716 -3.868486 2.480538
C -0.311987 1.166636 -3.968268
C -4.362385 -3.146148 1.911013
C 1.025170 1.327850 -3.746462
C 1.499117 -3.499819 3.815166
C 1.220486 1.311603 -2.300338
C 1.556482 -3.838493 5.160120
H 2.453839 -5.028226 6.512810
H 3.822410 -6.120482 5.028384
H 3.747289 -5.608096 2.769040
H 2.291304 -3.959716 2.023306
H 4.667865 -1.757709 7.018881
H 5.518783 -2.473799 5.019722
H 4.469818 -1.912674 3.031136
C -3.263567 1.229122 -3.497263
C -3.572246 2.561323 -3.727273
N 1.961590 0.449422 0.435429
C -4.479164 2.914994 -4.712161
C -5.077402 1.933964 -5.468856
C -4.781015 0.628006 -5.253628
C -3.876829 0.263088 -4.265444
Cl 4.732333 1.498561 3.056503
Cl 4.851571 3.136694 0.252341
C -1.501223 -3.905978 3.657304
C -1.690939 -4.024701 5.029286
H 2.791201 -0.439254 7.058304
C -2.088535 -5.240679 5.573324
C -2.296415 -6.337933 4.745743
C -2.106700 -6.219209 3.373761
C -1.709104 -5.003232 2.829723
H 2.194329 4.103478 -2.601254
H 3.683095 5.409435 -3.807029
H 5.756439 4.538380 -4.404227
H 6.350580 2.437601 -3.701270
H 4.904155 1.175384 -2.434124
H 3.176368 2.352620 -7.602932
H 4.719767 0.682994 -7.334011
H 4.550403 -0.735438 -5.548362
H 2.884078 -0.445503 -3.999369