29
H20 C8 N1
H 0.925491 1.578436 -0.917196
H 0.712568 0.361922 -1.878805
N -0.007981 0.009975 0.000094
H -1.504819 0.920712 -2.161392
H -0.635495 2.188525 -2.472441
H -1.381405 2.065775 -1.098133
H -1.243073 -1.561783 0.455079
H -1.913035 -0.541304 -0.520761
C -1.088466 -1.014902 -0.330472
H -0.617864 -1.402391 -2.283372
C -0.781965 -1.930035 -1.498837
H -1.529231 -2.512643 -1.655175
H -0.003506 -2.454016 -1.297367
C 1.302515 -0.673032 0.347533
H 1.573755 -1.221013 -0.404880
C 1.265897 -1.537050 1.576889
C -0.520218 0.824527 1.166426
H 1.981971 0.008326 0.471343
C 0.456246 1.844640 1.711676
H 1.040768 -0.999329 2.339670
C 0.289433 0.897994 -1.189415
H 2.128441 -1.937364 1.711473
C -0.917585 1.580085 -1.784067
H 0.606784 -2.225004 1.463447
H -0.764334 0.217186 1.882245
H -1.325801 1.287132 0.888108
H 1.241486 1.395226 2.034720
H 0.045317 2.329597 2.431155
H 0.703074 2.456012 1.014154