301
Ho1 H152 C128 N16 O4
H 11.334321 -7.971106 -2.370318
H 5.582641 2.863733 11.325855
C -4.478764 0.404579 7.122652
C -5.748025 0.571456 -5.466547
H 5.061873 -2.646227 6.847987
H -10.660236 12.970383 1.072187
H 3.950116 -1.616144 6.447258
H -11.181682 11.864447 0.136372
H -2.581152 2.900142 -3.578494
H 9.633861 -6.164288 -3.026741
C 0.698330 -8.364024 -4.196516
H 10.677728 -5.075039 -3.433135
C -4.667189 0.935550 -13.150186
H 5.891275 3.130735 13.680685
H -2.693052 -0.309956 -7.341033
C -8.404159 -0.748386 -3.589550
H 11.789635 -6.546587 -4.738016
C -5.617284 -0.627021 -17.371765
H -2.016888 -0.678601 -5.219432
H 10.643453 -7.605494 -4.627429
H -1.531144 -4.011581 -4.610885
C -5.573856 0.101168 -13.806701
H -10.171439 11.477596 2.801042
H -10.693012 10.380762 1.888300
C -5.779980 -0.975945 -16.080108
H 6.264297 3.538824 17.289555
C -5.092185 -0.308438 -14.942753
H -12.933194 12.195165 1.063534
H -12.485372 13.580241 1.653501
H 7.404510 3.205071 16.269160
H 6.025954 2.464746 16.173811
H -6.191374 0.829356 -0.145494
H -3.326230 -3.776436 -6.062024
H 5.987631 -1.212606 5.378903
N -2.339890 -0.111221 0.985336
H -4.153459 3.358294 1.092779
N -3.684066 -0.338780 -1.020979
H -1.172436 0.051105 6.137429
N -1.642247 -1.582768 -1.297686
H -4.913669 8.005047 1.369091
N -0.276516 -3.372899 -2.072067
H -6.674241 1.994458 3.654813
N 0.531939 -2.705392 0.098381
H -5.051031 -2.289718 -5.591597
H 5.961019 -2.662915 4.786085
H -12.331267 11.383539 3.363193
N -0.146231 -1.188333 2.366355
H 3.424615 -3.724856 6.852137
N -1.880973 0.146679 3.332124
H -13.094200 12.730687 3.609244
H -11.526585 12.703380 3.621849
H 3.648915 -5.381485 5.261917
H -7.517015 1.575749 1.591566
H 4.704716 -4.474284 4.520341
H -0.869253 3.962084 3.305675
H -4.002774 0.974994 -9.103079
H -2.865053 0.005593 -9.579927
H 5.952756 -5.806262 5.902678
N -2.184183 1.694080 -8.935746
H 6.085983 -4.310441 6.351058
H 7.274335 -5.496782 -3.411436
H -2.580560 1.278406 -11.450832
O -4.232420 1.481692 4.526449
H -3.688477 2.273597 -10.970158
O -5.400229 -0.809068 -3.470671
H 2.905813 -7.412828 -1.489634
O 1.179853 -5.891217 -2.811822
H -5.859517 1.783587 5.623774
H -0.979415 5.653605 1.266222
H -6.494881 -0.904643 -4.973781
C 0.460816 -0.020197 -3.296262
H -4.202446 -0.419184 -11.735164
C -1.218483 1.663739 -2.507626
H -5.300669 0.601797 -11.293428
C 1.200347 1.739592 2.549400
C -1.634704 2.664998 -0.629313
C -0.575582 2.664998 1.663889
C 3.275970 -0.960774 -0.137318
C 1.324511 -3.297046 1.026159
C 4.489332 1.906468 3.750058
C -0.624035 0.859697 -3.495554
C 3.251016 1.299645 3.873171
H -2.314056 7.425531 1.867111
H -3.316844 1.967151 6.738800
H -7.227423 0.569939 -2.862031
H -7.798257 1.028091 -4.235691
C 6.091486 4.773711 11.540449
C 5.840276 5.001270 12.999495
C 6.350768 3.969669 13.871307
C 0.803704 -2.007545 2.946463
C 2.417140 1.011403 2.682798
C 5.936555 4.348934 15.361624
C 0.750822 2.725680 3.461402
C 5.248409 2.270563 4.856731
C 2.925082 0.161850 1.725653
C 2.157580 -1.036627 -2.343282
C 2.161405 -1.309698 -3.789646
C -0.730512 2.240221 -5.603940
C 4.338682 -2.174422 -2.006762
C -1.554147 3.135286 0.723912
H 1.817912 -7.320287 -5.590618
C 3.194988 -1.400721 -1.469496
H 0.491216 -6.642162 -5.086156
C 4.464791 -1.127651 0.683459
H 2.216010 -4.155701 -3.736673
C -0.363084 3.286992 2.923288
C 1.166883 -0.657362 -4.348805
H -4.854009 2.357035 -5.523219
H -4.915867 1.604574 -4.148371
H 5.050759 -5.251018 7.059176
H -6.197969 2.305455 -4.718238
H 6.216893 2.998751 7.171171
C 2.811997 1.056915 5.177311
C 4.241362 -0.490486 1.818237
H -6.447378 0.729230 -6.126389
H -4.983602 0.170952 -5.908522
C 0.834884 -1.840668 4.381125
C -3.760787 4.182058 1.280232
C -4.053873 6.442476 1.834228
C 1.904161 -4.480352 0.492128
C -1.115362 2.437439 -6.927671
H -4.131970 -0.138528 6.398142
H -5.407973 0.222532 7.234635
C -4.579631 5.213658 1.653945
C 1.633097 -2.356469 5.457709
C 5.236192 -1.643451 -2.926239
H -4.600199 2.326694 7.566194
H 1.342891 -4.513727 -4.993946
H 5.924907 4.462714 8.961291
C 0.295337 -1.127651 6.941312
H 0.152541 -8.928370 -4.754102
H 0.207707 -8.128880 -3.406456
C 2.755884 -5.466441 1.077841
H 1.499152 -8.826727 -3.959554
H -3.819861 0.885487 -13.630842
H -4.969647 1.854888 -13.195854
C 4.782153 2.058174 6.132349
H -9.135714 -0.349399 -3.118630
C 6.259226 -2.417151 -3.407250
H -8.093707 -1.520569 -3.104789
C -6.154960 7.610612 2.337833
H -8.697961 -1.021456 -4.463275
C -6.723752 8.975965 2.324632
C 4.644983 -3.463922 -1.614223
C 1.292408 -1.962033 6.703820
C 2.645306 -6.664918 -0.994531
H -5.769839 -1.412858 -17.886872
H -4.737984 -0.279614 -17.557583
C 6.438377 -3.721822 -3.037237
H -6.273480 0.038968 -17.574950
C 3.125394 -6.482870 0.247469
C 5.667593 -4.207281 -2.046255
H -5.833003 -0.636123 -13.232582
H -6.356109 0.626070 -13.998096
C 9.322571 -5.284393 -4.723210
H -5.446772 -1.889214 -16.059814
H -6.733468 -1.051798 -15.939387
H -4.504417 -1.018422 -14.629581
C -3.876230 4.288252 5.333024
H -4.487287 0.390926 -15.240150
C -8.763755 10.568878 1.989882
H 4.455997 3.855890 10.875901
H 7.051619 4.614419 11.457885
C 4.475298 -2.356469 6.131290
H 5.901747 5.589889 11.056330
C 8.374028 -4.085916 -4.413333
H 6.226470 5.856891 13.270517
C 3.597888 1.421009 6.305623
H 4.881940 5.080157 13.094559
H -3.998769 0.210396 7.920575
H 7.297325 3.822514 13.733272
C 5.035720 2.619486 8.513357
C -7.994288 9.233865 2.172450
C 12.701917 -8.697777 -3.501675
H -2.423994 2.543633 -8.851567
C 3.449745 -4.753423 -5.254549
H -3.048039 3.977254 -1.476707
H 4.982902 4.476367 15.497485
Ho -0.028626 -0.252307 0.065245
C -11.050718 12.085937 1.060195
H 4.813212 2.090033 2.908338
H 6.384025 5.184834 15.541800
H 1.147450 2.932001 4.267700
C 13.485332 -9.592842 -2.669494
H 6.086895 2.660447 4.732165
C 14.171385 -10.715466 -3.158674
C -1.247199 -2.508175 -2.182938
H 2.792291 -1.843703 -4.230993
H -0.238198 2.889523 -5.153913
C 2.135898 -4.753423 -4.499235
C -10.160050 11.190872 1.867201
C 11.976494 -7.635836 -3.017216
C -0.784840 -0.581509 3.382117
H 5.228287 -1.605524 0.457831
C 10.154514 -5.815364 -3.762779
C -12.216975 12.556226 1.644672
H 0.956921 -0.646743 -5.243274
C 5.913874 3.575234 9.372083
C -12.314338 12.328667 3.228238
H 1.998281 0.621519 5.314920
H 4.828935 -0.420701 2.527349
C 11.148918 -6.937988 -4.128816
C 0.509683 -3.509434 -0.996175
C -1.056021 1.072086 -4.895509
H -0.868269 3.221759 -7.358954
C -3.468594 0.070826 0.230751
C 5.421218 -1.931692 5.085235
H -5.484612 5.072571 1.792709
C -4.860830 1.360327 3.305296
C -2.875538 -1.112480 -1.703027
C 3.752807 -3.418410 5.986703
C -2.660681 0.298385 2.223284
H 5.113286 -0.765073 -3.244839
C 4.300002 -4.677570 5.366023
C 5.471476 -5.041664 6.236272
N -4.780570 7.595441 2.270100
H 3.047820 -5.395139 1.948175
N 1.540834 -2.948122 2.291658
C 5.416130 3.696598 10.857582
N -0.936519 1.633398 -1.170227
C -2.198206 2.695339 -2.766518
N 1.061022 -0.278097 -2.092908
N 2.340716 -0.232585 0.557022
H 6.875459 -2.048506 -4.005465
N 0.322852 1.694080 1.480981
C -3.268813 -1.749645 -3.000296
N 7.470027 -4.632058 -3.544704
H 4.077184 -3.844704 -0.977099
H -6.444064 7.097846 3.118687
H -6.521757 7.188869 1.554571
C 6.453963 3.302163 16.374965
C -1.879773 1.496862 -7.593133
H -6.560036 9.252070 3.236574
C -4.529724 0.692821 0.979084
H -6.142287 9.529692 1.770181
C -0.163462 -0.915262 4.653826
H -5.501452 3.786105 4.450270
C -2.178468 0.328727 -6.918928
H -5.697300 4.033386 5.992337
C -2.211199 -2.599198 -3.304371
O 2.591223 -3.281875 5.166517
C 1.741231 -5.769852 -1.574933
H 3.751373 -7.097279 0.568775
H 5.796426 -5.078073 -1.730792
C -2.441108 3.286992 -1.616693
H 8.793472 -6.035338 -5.029476
C -2.414910 4.288252 1.135390
C -4.021547 0.783844 2.291309
C -1.807025 0.131509 -5.647914
H 2.821029 -6.623957 -3.726680
C 1.377362 -4.677570 -0.791279
H 9.860895 -5.000703 -5.484691
C -2.226540 -3.418410 -4.424989
C -5.853886 0.950721 0.699830
H 3.287500 1.231377 7.151160
C -4.329634 -1.628280 -3.840641
C -3.301193 -3.266704 -5.269073
H 4.976212 1.747177 8.937623
H 4.849912 -1.631314 4.387648
H 4.139646 2.991166 8.473335
C -0.483829 -0.535997 5.954523
H 0.120333 -0.884921 7.837097
C -6.124876 1.633398 3.008438
C -4.346249 -2.356469 -5.009847
H 8.829263 -3.325870 -4.038753
H 7.910921 -3.805260 -5.232333
C -6.617521 1.390668 1.755423
C -3.165649 0.935550 -9.592165
H -3.968460 5.225794 5.158402
H 6.813546 3.233895 9.356793
H -3.299585 3.893816 4.673963
C -3.432814 1.345156 -10.964481
H -3.502349 4.156268 6.205781
H -8.388326 11.092263 2.700235
C -4.966150 2.179539 5.571517
H -8.300411 10.893528 1.189088
H 1.775910 -2.310957 7.408054
H 12.129624 -9.236333 -4.050598
C -1.889152 5.517070 1.371537
C -6.173754 -0.141562 -4.448313
C -4.446734 0.510774 -11.763413
N 5.553787 2.482951 7.222105
H 3.343935 -3.994893 -5.834479
H 3.542009 -5.549879 -5.791160
C 1.942213 -6.240141 -3.943933
H 4.226447 -4.642677 -4.710989
H 13.342943 -8.280586 -4.094540
C -5.114121 3.651087 5.323362
C -4.263482 1.785104 6.838115
C -7.446415 0.268044 -3.769027
C -5.403469 1.815445 -4.939971
H 12.882560 -9.917493 -1.978425
H 14.153589 -9.061871 -2.205595
C -2.701930 6.594182 1.733349
C 1.297187 -7.089694 -4.798032
H 14.554697 -11.185755 -2.411363
H 14.859256 -10.436327 -3.755894
H 13.547880 -11.282846 -3.610731
H -8.502728 8.778748 2.846271
H -8.175012 8.736270 1.346213
H 12.526978 -6.975915 -2.552563