12
H6 C4 N2
H -0.642691 -2.294899 -0.857368
H -1.631219 -1.936873 0.350113
H -0.168351 -2.508559 0.657467
C -0.917782 0.484614 -0.156333
N -0.185062 1.564081 -0.188296
C -0.696681 -1.942647 0.056728
C 1.038708 -0.273785 0.191415
N -0.194061 -0.641050 0.083126
H -1.858748 0.486539 -0.287674
C 1.073416 1.112121 0.010187
H 1.782997 -0.839697 0.362500
H 1.856269 1.651085 0.021031