133
B1 H44 Ru1 C74 N11 O2
C -0.590737 0.913881 -6.324296
C -1.216593 -0.275218 -6.090104
C -0.761978 -1.161816 -5.157108
C 0.363722 -0.792912 -4.418883
C 1.082356 -1.479072 -3.353371
C -3.604503 1.770966 1.709079
N -1.871937 0.933555 3.686515
N -1.001449 2.681297 1.524690
N -2.046901 0.807022 -0.406469
N -2.871180 -0.956951 1.756242
N -0.090490 -0.193690 1.507458
O -4.594697 2.336249 1.764957
H -2.657079 0.169926 6.672186
H -1.448527 2.288660 6.541442
H -3.934522 -3.627320 3.123216
H 1.291906 2.790369 5.607241
H 2.260064 4.227862 7.140621
H 0.542269 5.246036 2.581920
H 0.371759 5.201767 0.158715
H -0.368741 7.032757 6.166371
H -1.329473 5.598953 4.618222
H -1.498294 -2.338617 6.030157
H -2.145316 5.155039 -1.647616
H -2.015529 -3.789637 7.750571
H -1.721459 6.870440 -3.176671
H -4.181389 -4.456122 8.089657
H -5.849030 -3.653143 6.745079
H -5.344049 -2.215649 4.993063
B 3.057181 -0.898664 -1.884078
C -2.431118 0.046958 4.561393
C -2.328151 0.568341 5.899944
C -1.669047 1.736535 5.825766
H -0.185392 6.159686 -4.723720
C -3.663068 -2.957145 2.538628
C -3.180377 -1.653687 2.901878
C -3.010732 -1.185179 4.205186
C 0.955147 3.651143 5.706240
C 1.540529 4.511918 6.622425
H 2.908373 -2.296808 0.989922
H 1.413778 -2.756708 2.708343
H 1.252599 -5.846888 -2.871930
H 5.782686 -5.513645 -1.736616
H 8.345170 -1.154437 -2.692161
H 9.491849 0.437995 -3.896015
H 8.429195 2.190286 -4.868896
H 6.156186 2.400561 -4.765294
C -0.019938 6.179361 6.043172
C -0.600913 5.316127 5.122856
C -1.416035 5.056665 -2.215429
C -3.362246 -2.118505 5.335910
C -1.247845 6.071149 -3.126672
C -2.380590 -2.600539 6.162279
C -2.690089 -3.471150 7.194262
C -3.980052 -3.865877 7.399833
C -4.968545 -3.394910 6.595664
C -4.666063 -2.524299 5.549914
H -1.791384 1.836139 -3.398726
H -2.746704 -0.404334 -3.269036
C -0.231794 5.650600 -3.947558
C 1.923716 -0.660107 0.312864
H -3.909286 -3.758895 0.677185
C 2.161610 -1.759439 1.124641
C 1.265248 -2.038576 2.137363
C 2.155273 -3.210459 -2.338757
C 2.699690 -4.571712 -2.275759
C 2.147590 -5.779256 -2.634571
C 2.976566 -6.889655 -2.623488
C 4.324018 -6.758079 -2.280268
C 4.880088 -5.573899 -1.951256
H 1.389259 4.692681 -4.504474
H 0.922525 2.995725 -2.644112
C 4.067184 -4.445055 -1.943062
C 4.361374 -3.039534 -1.810118
H -1.539215 -3.039534 -2.145585
H -2.130913 -4.647952 -3.717679
C 5.507642 -1.107710 -2.308399
H -4.312230 -5.094325 -4.136296
C 6.524434 -0.297352 -2.951203
H -5.942945 -3.927361 -3.070685
C 7.896473 -0.438765 -3.081340
H -5.386095 -2.295578 -1.527109
C 8.568831 0.510546 -3.805841
C 7.930634 1.560691 -4.401190
C 6.587269 1.703334 -4.325805
C 5.863417 0.774927 -3.571953
C 4.438936 0.623677 -3.309063
H 0.629204 0.822884 0.006726
H -0.443486 -1.459398 2.970446
H 1.459750 6.368731 7.346769
H 1.019729 2.050103 -5.899521
H -0.962054 1.504126 -6.938880
N 3.159265 -2.380426 -1.898663
H -1.976493 -0.487952 -6.580895
N 5.540075 -2.402560 -1.920855
H -1.185272 -1.978322 -5.020296
N 4.353496 -0.425239 -2.446819
Ru -2.003203 0.892976 1.639474
N 3.358472 1.130304 -3.944186
N 2.056360 -0.598623 -2.961512
N 1.078733 -2.753019 -2.977870
O 2.819589 -0.247304 -0.619557
C -1.361442 1.980011 4.436168
C -0.696799 3.105166 3.938365
C -0.530638 3.415045 2.583493
C 0.126066 4.586928 2.073497
C 0.032390 4.564794 0.745208
C -0.691127 3.368318 0.386637
C -1.031857 2.985888 -0.916282
C -1.657728 1.788182 -1.276666
C -1.945620 1.350416 -2.621107
C -2.474705 0.118279 -2.551003
C -2.539899 -0.243246 -1.157609
C -3.016011 -1.453249 -0.651203
C -3.158144 -1.782803 0.689491
C -3.647552 -3.028466 1.189443
H 2.634045 -7.724606 -2.845187
H 4.860460 -7.518020 -2.279334
C -0.105259 4.047100 4.951186
C -0.683919 3.937658 -2.016707
C 0.663902 4.741868 -3.924040
C 0.369195 3.729843 -2.783107
C -3.401225 -2.509542 -1.665566
C -2.436786 -3.206770 -2.323331
C -2.794383 -4.178215 -3.264764
C -4.085313 -4.437677 -3.520246
C -5.048966 -3.750287 -2.885924
C -4.714219 -2.773923 -1.955360
C 0.788525 0.083848 0.547866
C 1.050082 5.777256 6.756581
C 0.159003 -1.252812 2.293557
C 2.203767 0.456440 -3.819345
C 1.048151 0.409713 -4.697535
C 0.568620 1.265568 -5.682001