108
P2 H45 Ru1 C52 N8
H 0.350965 2.028557 -3.073895
H -0.603752 1.282069 -4.073238
H 0.458250 3.081525 -5.152025
H 2.532831 2.981060 -3.743345
H 2.936657 3.029385 -5.259991
C 1.033250 -0.626753 -4.938596
H 4.189120 1.353284 -4.186026
H 2.596719 0.993393 -2.483003
H 0.041164 1.226114 -6.516614
N -3.165335 -1.088380 -0.407078
H 1.371981 1.936995 -6.952673
H 5.759822 -0.289752 1.117456
H 5.846615 -4.223120 1.847221
H -6.940807 2.198965 -1.556057
H 3.576751 -4.406245 1.516497
H 3.630996 0.768302 -6.429426
C -2.933889 0.229101 -0.613478
H -0.451866 -5.758062 1.013055
C -3.944057 1.209582 -0.978438
H -2.382998 -7.018317 0.798314
C -5.315860 1.109118 -1.175009
H -4.355115 -6.044195 0.178497
C -6.016227 2.237116 -1.460204
H -0.336142 -2.033253 3.077218
C -5.342380 3.463035 -1.608605
H 0.618575 -1.286765 4.076561
C -3.993480 3.582574 -1.420500
H -0.443427 -3.086220 5.155348
C -3.290702 2.421512 -1.083170
H -2.518008 -2.985756 3.746668
C -1.888763 2.206595 -0.790740
H -2.921834 -3.034081 5.263314
C 0.337705 2.958170 -0.527399
H -4.174298 -1.357980 4.189349
C 1.349078 3.986975 -0.518738
C 1.270724 5.354052 -0.765733
H -2.581897 -0.998089 2.486326
C 2.423135 6.097997 -0.633668
H -0.026342 -1.230810 6.519937
C 3.612914 5.507928 -0.267991
H -1.357159 -1.941690 6.955996
C 2.537652 3.401993 -0.162342
C 1.094728 0.180777 -3.637130
C 0.324445 1.482998 -3.874935
H -3.616174 -0.772998 6.432749
C 0.925965 2.232029 -5.007311
C 2.948711 -0.233797 0.616801
C 2.502694 2.490184 -4.579688
C 3.958879 -1.214278 0.981761
C 3.252485 1.181605 -4.419452
C 2.553323 0.455464 -3.287140
C 5.330682 -1.113814 1.178332
C 0.951279 1.425771 -6.244889
C 6.031049 -2.241812 1.463527
C 1.703480 0.141354 -6.041844
C 5.357202 -3.467730 1.611928
C 4.008302 -3.587270 1.423823
C 3.305525 -2.426208 1.086493
C 3.171719 0.324479 -5.699677
N -1.728438 0.859865 -0.504855
C 1.903585 -2.211291 0.794063
N 0.947663 1.764043 -0.194604
C -0.322882 -2.962866 0.530722
N -0.956950 3.146381 -0.801474
C -1.334256 -3.991671 0.522061
C -1.255901 -5.358748 0.769056
P -0.295519 0.719342 2.239523
C -2.408312 -6.102693 0.636991
C -3.598092 -5.512624 0.271314
C -2.522830 -3.406689 0.165665
C -1.079906 -0.185473 3.640453
C -0.309622 -1.487694 3.878258
C -0.911142 -2.236725 5.010634
H 4.524235 3.742809 0.199534
C -2.487872 -2.494880 4.583011
C -3.237662 -1.186301 4.422775
C -2.538501 -0.460160 3.290463
C -0.936457 -1.430467 6.248212
C -1.688658 -0.146050 6.045167
C -3.156897 -0.329175 5.703000
H -2.992956 0.379162 3.117274
N 1.743260 -0.864561 0.508178
N -0.932841 -1.768739 0.197927
N 0.971772 -3.151077 0.804797
H -1.627180 0.380434 6.869142
H -0.093847 0.793736 5.177663
H -1.463239 1.475367 4.820594
H -3.576394 0.533038 5.556477
Ru 0.007411 -0.002348 0.001661
C 3.716583 4.142122 -0.033138
P 0.310341 -0.724038 -2.236200
C 2.277275 1.981504 0.063797
H -4.509413 -3.747504 -0.196211
C -1.018428 0.622057 4.941919
H 3.007778 -0.383858 -3.113951
N 3.180158 1.083684 0.410401
H 1.642002 -0.385130 -6.865819
H 0.108669 -0.798432 -5.174340
H 1.478061 -1.480063 -4.817271
H 3.591216 -0.537734 -5.553154
H -5.745000 0.285056 -1.114133
C -3.701761 -4.146818 0.036461
H -5.831793 4.218424 -1.843898
H -3.561929 4.401549 -1.513174
C -2.262453 -1.986200 -0.060474
H 0.466688 5.753366 -1.009732
H 2.397820 7.013621 -0.794991
H 4.369938 6.039499 -0.175174