94
V1 H40 C36 N8 O9
V -0.322754 0.000000 -0.316189
H 1.913924 5.971673 -0.996181
C 1.063863 6.411916 -1.205695
N 2.179114 3.401384 -2.720036
N 2.179114 -3.401384 -2.720036
C -1.945862 6.443121 0.721827
H -2.743249 -7.011104 0.765679
H -0.732527 -5.854934 -2.134374
O 1.972229 3.327075 -3.917672
H -1.664325 -6.205152 1.630042
O 1.972229 -3.327075 -3.917672
H 0.537115 5.111842 -2.766811
H 0.537115 -5.111842 -2.766811
O 2.905480 4.223949 -2.178226
O 2.905480 -4.223949 -2.178226
H 1.229152 -7.177233 -1.795255
C -2.194160 0.677538 3.509814
C -2.194160 -0.677538 3.509814
C -1.747333 1.099821 2.195241
C -1.747333 -1.099821 2.195241
H 0.644281 -6.721500 -0.376412
C -1.694114 2.380587 1.665124
C -1.694114 -2.380587 1.665124
H -2.510754 5.410426 -0.992283
H -2.510754 -5.410426 -0.992283
H -3.057481 4.725704 0.346652
H -3.057481 -4.725704 0.346652
H -1.222947 -6.928039 0.271617
C -2.447181 1.562513 4.713297
C -2.447181 -1.562513 4.713297
C -1.139394 2.036206 5.364250
C -1.139394 -2.036206 5.364250
H 4.149875 2.332545 -3.455769
H 4.149875 -2.332545 -3.455769
H 5.108919 1.050655 -3.458692
H 5.108919 -1.050655 -3.458692
H 5.869978 2.667048 -1.886856
H 5.869978 -2.667048 -1.886856
C -1.038404 2.851362 0.527905
H 5.486724 1.304339 -1.140404
C -1.038404 -2.851362 0.527905
H 5.486724 -1.304339 -1.140404
C -1.101432 4.168273 -0.097711
H 4.482271 2.548064 -1.098502
C -1.101432 -4.168273 -0.097711
H 4.482271 -2.548064 -1.098502
C -0.155830 4.196784 -1.051727
C -0.155830 -4.196784 -1.051727
C 0.458103 2.873363 -1.081936
C 0.458103 -2.873363 -1.081936
N -1.426381 0.000000 1.440993
N -2.460622 3.385445 2.427167
N -2.460622 -3.385445 2.427167
C 0.121348 5.406160 -1.917065
O -1.813994 4.220806 3.031345
C 0.121348 -5.406160 -1.917065
O -1.813994 -4.220806 3.031345
O -3.677953 3.326626 2.416448
H -2.743249 7.011104 0.765679
O -3.677953 -3.326626 2.416448
C 1.063863 -6.411916 -1.205695
H 1.913924 -5.971673 -0.996181
H -0.732527 5.854934 -2.134374
H -1.664325 6.205152 1.630042
C -2.270993 5.165722 -0.063604
C -2.270993 -5.165722 -0.063604
H 1.229152 7.177233 -1.795255
C -1.945862 -6.443121 0.721827
N 1.314522 0.000000 -1.566252
H 0.644281 6.721500 -0.376412
N -0.138029 2.066738 -0.146435
N -0.138029 -2.066738 -0.146435
C 2.015641 1.096678 -1.988202
C 2.015641 -1.096678 -1.988202
O -1.497037 0.000000 -1.402539
C 3.278563 0.679558 -2.589456
C 3.278563 -0.679558 -2.589456
H -1.222947 6.928039 0.271617
C 1.510326 2.394506 -1.859571
C 1.510326 -2.394506 -1.859571
C 4.455752 1.560493 -2.916881
C 4.455752 -1.560493 -2.916881
H -2.979377 1.061880 5.379841
H -2.979377 -1.061880 5.379841
C 5.134166 2.064942 -1.647134
C 5.134166 -2.064942 -1.647134
H -2.973928 2.352750 4.431672
H -2.973928 -2.352750 4.431672
H -1.346460 2.597453 6.139936
H -1.346460 -2.597453 6.139936
H -0.619912 2.552554 4.715246
H -0.619912 -2.552554 4.715246
H -0.619912 1.257194 5.654645
H -0.619912 -1.257194 5.654645