29
H20 C8 N1
H 1.564145 -1.236329 -0.422055
H 1.993144 -0.001146 0.438528
N -0.004900 0.006539 0.000137
H 0.621710 -2.226305 1.461102
H 1.050709 -0.989292 2.325734
H 2.141591 -1.928031 1.704090
H -1.305378 1.305402 0.894130
H -0.726571 0.251380 1.896456
C -0.495048 0.844267 1.163847
H 0.742919 2.454579 0.950827
C 0.495054 1.868096 1.668452
H 1.276784 1.420686 2.001750
C 0.268978 0.874095 -1.205691
H 0.094655 2.379553 2.374332
H 0.921328 1.546949 -0.956629
C -0.934941 1.567078 -1.787040
C -1.094284 -1.006677 -0.290234
H 0.668015 0.322746 -1.896182
C -0.821904 -1.939011 -1.446654
H -1.347597 2.112388 -1.112546
C 1.308108 -0.679856 0.329790
H -1.564139 0.911974 -2.096647
C 1.278146 -1.532773 1.566802
H -0.662561 2.121538 -2.521876
H -1.235921 -1.540092 0.507374
H -1.918233 -0.528158 -0.470653
H -0.038811 -2.460532 -1.258339
H -0.682990 -1.426639 -2.244465
H -1.573673 -2.524579 -1.568148