123
Fe1 P2 H40 C68 N4 Cl8
H -3.617488 -5.289031 4.337796
H -4.220145 -3.373079 -4.130976
H -6.614965 0.760714 0.137692
H -3.119871 -2.490302 -5.922603
H -3.180500 6.461707 4.846206
H -0.887045 6.130394 4.594389
H 2.278971 5.609446 -6.162582
C -2.863599 5.793631 4.282277
C -1.498700 5.590919 4.146858
C -2.919464 -2.196043 -5.063893
Fe 0.000000 0.000000 0.000000
P 2.072004 0.583722 0.835836
P -2.072004 -0.583722 -0.835836
H 1.218632 -4.963167 -0.284585
H -1.218632 4.963167 0.284585
H 0.050281 -4.755006 1.848861
H -0.050281 4.755006 -1.848861
H -2.208736 -0.814116 4.514285
H 2.208736 0.814116 -4.514285
H -2.387011 1.617334 4.228297
H 2.387011 -1.617334 -4.228297
H 4.664801 -5.162609 -3.648196
H -4.664801 5.162609 3.648196
H -0.328024 -4.398625 6.416304
H 0.328024 4.398625 -6.416304
H 1.016217 0.119883 3.482968
H -1.016217 -0.119883 -3.482968
H 1.499793 0.871878 5.602470
H -1.499793 -0.871878 -5.602470
H 3.724963 2.685385 1.979002
H -3.724963 -2.685385 -1.979002
H 4.747671 0.643010 -0.326461
H -4.747671 -0.643010 0.326461
H 6.503047 -2.721350 1.026820
H -6.503047 2.721350 -1.026820
H 4.541019 -3.377438 1.985713
H -4.541019 3.377438 -1.985713
H 2.664755 -2.036925 1.839302
H -2.664755 2.036925 -1.839302
C 1.440683 -1.319806 -2.345130
C -1.440683 1.319806 2.345130
C 1.400659 -2.593838 -1.788039
C -1.400659 2.593838 1.788039
C 0.865877 -2.876108 -0.537372
C -0.865877 2.876108 0.537372
C 0.852567 -4.185015 0.070844
C -0.852567 4.185015 -0.070844
C 0.214940 -4.068402 1.242351
C -0.214940 4.068402 -1.242351
C -0.168004 -2.691924 1.393128
C 0.168004 2.691924 -1.393128
C -0.879175 -2.174246 2.470981
C 0.879175 2.174246 -2.470981
C -1.245698 -0.843542 2.624798
C 1.245698 0.843542 -2.624798
C -1.907660 -0.321505 3.784716
C 1.907660 0.321505 -3.784716
C -2.014784 1.013558 3.626707
C 2.014784 -1.013558 -3.626707
C 1.921978 -3.730549 -2.621814
C -1.921978 3.730549 2.621814
C 3.285172 -4.005190 -2.789136
C -3.285172 4.005190 2.789136
C 3.749676 -5.007850 -3.580692
C -3.749676 5.007850 3.580692
C 1.069992 -4.564282 -3.330408
C -1.069992 4.564282 3.330408
C -1.278459 -3.148570 3.548972
C 1.278459 3.148570 -3.548972
C -0.526461 -3.353462 4.693356
C 0.526461 3.353462 -4.693356
C -0.869638 -4.271113 5.671367
C 0.869638 4.271113 -5.671367
C -2.032810 -4.988233 5.513943
C 2.032810 4.988233 -5.513943
C -2.828879 -4.805139 4.426930
C 2.828879 4.805139 -4.426930
C -2.455675 -3.890756 3.453134
C 2.455675 3.890756 -3.453134
C 2.344850 1.282751 2.483304
C -2.344850 -1.282751 -2.483304
C 1.668455 0.772702 3.600987
C -1.668455 -0.772702 -3.600987
C 1.955313 1.223899 4.872167
C -1.955313 -1.223899 -4.872167
C 3.571429 2.720260 3.995334
C -3.571429 -2.720260 -3.995334
C 3.287993 2.296309 2.701008
C -3.287993 -2.296309 -2.701008
C 3.493842 -0.552553 0.766452
C -3.493842 0.552553 -0.766452
C 4.694466 -0.155848 0.146683
C -4.694466 0.155848 -0.146683
C 5.813307 -1.007019 0.264527
C -5.813307 1.007019 -0.264527
C 5.747319 -2.182965 0.953371
C -5.747319 2.182965 -0.953371
C 4.585170 -2.568771 1.528610
C -4.585170 2.568771 -1.528610
C 3.458037 -1.761194 1.440008
C -3.458037 1.761194 -1.440008
N 0.960692 -0.168926 -1.745783
N -0.960692 0.168926 1.745783
N 0.257355 -1.959546 0.294135
N -0.257355 1.959546 -0.294135
Cl 4.437424 -3.041765 -1.914974
Cl -4.437424 3.041765 1.914974
Cl -0.656836 -4.341953 -3.211787
Cl 0.656836 4.341953 3.211787
Cl 0.927674 -2.417282 4.929699
Cl -0.927674 2.417282 -4.929699
Cl -3.505578 -3.667338 2.076093
H 0.887045 -6.130394 -4.594389
H 3.180500 -6.461707 -4.846206
Cl 3.505578 3.667338 -2.076093
H -2.278971 -5.609446 6.162582
H 3.119871 2.490302 5.922603
C 2.863599 -5.793631 -4.282277
C 1.498700 -5.590919 -4.146858
H 3.617488 5.289031 -4.337796
H 4.220145 3.373079 4.130976
H 6.614965 -0.760714 -0.137692
C 2.919464 2.196043 5.063893