182
Re4 H58 C92 N16 O12
N -4.312084 -5.069586 3.988577
C 8.845295 5.006038 -3.108572
N 4.063501 4.310486 7.924877
C 7.814480 5.387406 -4.069029
N 6.161534 3.148598 6.925057
H 2.372500 4.472518 9.302582
Re -4.710842 -2.424710 -8.374554
N 3.778910 1.723902 6.535363
H 1.667641 6.454446 8.184673
N -6.848586 -6.219618 3.732718
H -8.223558 -4.899650 4.803391
H 2.635582 7.491846 6.334612
H -9.552202 -4.423434 2.835241
H 4.569809 6.458398 5.441072
H 6.274047 5.669974 4.764028
Re 5.222383 6.614897 -5.211737
H -8.946618 -5.284970 0.741130
H 8.335679 4.676046 4.366462
H -7.641139 -7.243186 0.630913
H -5.675474 -8.290466 0.501015
H 8.851914 2.514302 5.126168
N -4.818391 -7.828082 3.449304
H -3.838868 -9.721090 0.536442
H 7.554707 1.650790 6.964420
H 0.277777 0.226094 -1.156167
H -2.569790 -9.709234 2.496720
N 1.621312 1.174574 0.453780
H -3.226666 -8.571058 4.531787
N -0.228531 -0.390418 2.004682
H -0.347662 0.550158 -5.151511
H -3.572478 -2.822874 -2.372484
H 1.437651 2.018326 -4.470531
O -3.071134 -6.932954 6.968356
O -6.335660 -4.563730 7.330496
C -7.230798 -2.562042 -6.674859
O -6.772474 -8.673810 6.696752
C -8.119318 -3.135082 -5.722275
O 6.034130 -0.501074 8.905016
C -7.990260 -4.470858 -5.269600
O 2.514796 1.536182 10.333893
C -6.815494 -5.120962 -5.619931
O 6.320376 3.360030 10.837739
C -5.787987 -4.510378 -6.470172
H 5.392145 3.788822 -4.387869
C -4.643004 -5.089346 -7.017318
H 4.477151 2.055870 -3.021973
C -4.032456 -6.215666 -6.340274
H 1.621312 4.656286 -2.010344
C -2.847763 -6.741282 -6.832311
H 2.466812 6.077030 -3.580928
C -2.152831 -6.126746 -7.887240
C -2.786543 -4.982642 -8.422577
H -1.876513 -2.534378 -7.107852
C -3.823977 -6.796610 6.185033
C -5.872372 -5.164434 6.452701
H -4.108568 -0.435866 -3.765934
C -6.251275 -7.820178 6.125988
H -5.048381 -0.803402 -5.812810
C 5.594006 0.652910 8.700328
C 3.413244 1.834558 9.538760
C 5.718101 2.974710 9.845792
H -0.756348 -2.056186 -5.108212
H 3.338787 8.886902 -4.254035
H 2.834134 9.855142 -2.207159
H 4.058538 9.663470 -0.195710
H 5.832269 8.134046 -0.420079
N 4.880874 7.924590 -3.533692
H 7.505069 6.740966 -0.612957
N 6.826683 6.243014 -3.817106
H 9.392968 5.468422 -1.140422
N 4.149541 5.092982 -3.887959
H 9.541882 4.397430 -3.321132
N -3.567514 -1.846730 -6.521344
H 7.852535 4.998134 -4.935015
N -3.976200 -4.326610 -7.824259
C 3.358642 2.666454 0.335691
C -1.006193 -1.463386 4.000386
N -6.133798 -3.231906 -6.966146
C -1.131943 -1.279618 2.504592
C 3.247784 2.316702 1.634670
C -2.060173 -2.079898 1.776377
C 2.129274 1.279302 1.784249
C -2.295126 -1.994930 0.355372
C 1.662677 0.797158 2.961203
C 0.588841 0.014662 3.028120
N -1.464517 -1.129442 -0.498805
C 0.128863 -0.560354 4.260182
N 0.309214 0.482974 -1.998535
H -7.421077 -1.726194 -7.084235
H -8.824178 -2.599586 -5.379817
H -8.676919 -4.893722 -4.757881
O 5.924926 4.569342 -7.296795
H -6.674853 -6.002258 -5.293218
O 2.743131 7.393046 -6.836248
H -4.441143 -6.589130 -5.568759
O 6.697625 8.669542 -6.749649
O -2.521807 -1.570090 -10.221466
H -2.496988 -7.535634 -6.442618
O -5.963375 0.269566 -8.698118
H -1.322222 -6.452786 -8.213953
O -6.347242 -3.301066 -10.815847
H -2.427494 -4.611154 -9.221646
C -3.167101 -5.332394 3.457177
C -2.417567 -4.352298 2.764388
C 4.273636 1.034278 5.665441
C -2.885819 -3.065922 2.516401
C 3.686253 0.678598 4.460933
C -4.300502 -2.789282 2.961203
C 2.394010 1.099486 4.185392
C -4.886230 -3.850394 3.764208
C 1.782911 1.795038 5.169467
C 2.441993 2.198142 6.436956
C 5.620480 5.409142 -6.615815
C 3.669707 7.045270 -6.202503
C 6.101969 7.794174 -6.218249
C -3.347452 -1.852658 -9.536550
C -5.480231 -0.712506 -8.473749
C -5.733385 -2.890058 -9.796345
C -0.494922 0.018614 -2.974737
C -0.018397 0.680574 -4.269780
C 0.946235 1.467022 -3.872214
C 1.199389 1.431454 -2.506318
C 2.144165 2.083534 -1.593096
C 2.309625 1.955094 -0.298053
Re -5.383272 -6.521353 5.191904
C 2.827515 4.847958 8.554685
C 2.446957 6.031582 7.842215
C -3.400399 -2.700362 -0.361034
C 3.011176 6.703422 6.708561
C -3.120772 -2.435578 -1.632459
C 4.137958 6.108646 6.212587
C -1.992335 -1.439674 -1.746612
C -8.025006 -5.281018 3.957087
C 4.672394 4.909214 6.893567
C -1.563793 -0.916034 -2.955056
C -8.814250 -5.018210 2.776197
Re 4.827430 2.363929 8.419277
C 5.840542 4.278870 6.346421
C -8.516422 -5.620890 1.520517
C 6.573530 4.901310 5.232448
C -7.636175 -6.666194 1.386683
C 7.726786 4.249230 4.956907
C -6.699672 -6.824274 2.480974
C 8.104035 2.988542 5.472562
H -1.510846 -2.004810 4.598704
H -0.178893 -0.121682 1.166250
C -5.615909 -7.668026 2.480974
C 7.306517 2.458974 6.535363
H -4.116841 -3.208194 0.001105
C -5.177440 -8.389266 1.304021
C -4.088713 -9.201402 1.292212
H 3.990699 3.251350 -0.061875
C 4.621102 3.966662 -3.864341
C -3.372271 -9.201402 2.488847
C 4.078393 2.915430 -3.088890
H 3.778910 2.660526 2.343204
C -3.699882 -8.529562 3.709100
C 2.855643 3.277038 -2.411847
H 0.501148 -0.384490 5.118295
C 2.382428 4.407310 -2.522063
C 2.944992 5.286630 -3.360495
H -2.816325 -6.213690 3.528030
H -1.548902 -4.583490 2.453420
C -2.346419 -2.115466 -6.395382
C -1.666378 -1.799306 -5.194811
H -4.777026 -1.994930 2.732898
H 5.148919 0.704286 5.830766
C -2.227288 -1.172914 -4.198927
H -5.731731 -3.684410 4.165711
H 4.164432 0.152982 3.831125
C -3.597297 -0.852802 -4.446914
H 0.875087 2.040062 5.039569
C -4.178061 -1.135370 -5.631740
H 2.016761 2.715854 7.110063
C 3.874877 8.709062 -3.486456
C 3.605177 9.299886 -2.222904
C 4.278599 9.207014 -0.998715
C 5.299488 8.337574 -1.179785
C 5.656881 7.679566 -2.455146
C 6.783664 6.835814 -2.592916
C 7.662256 6.444566 -1.502561
C 8.726164 5.628478 -1.801720