89
Fe1 H34 C48 N6
Fe 0.018257 0.014021 0.022728
C 5.050365 4.693671 -2.122114
C 6.072990 4.023621 -2.758181
H 5.064516 1.243947 0.444316
C 6.054594 2.651615 -2.849402
H 4.675372 -0.325133 2.322221
C 4.992112 1.926572 -2.294857
H 0.385350 -2.598047 4.490733
H -2.048571 -2.646846 3.964648
H -5.133424 -0.537221 0.147050
H -4.748997 1.067520 -1.703916
H -0.454258 3.302895 -3.894727
H 1.986738 3.293511 -3.424131
H 0.977321 -3.671628 -3.373684
H -1.454241 -3.878086 -3.023476
H -2.032062 -2.108178 -1.381206
H 2.717858 -1.772215 -1.100999
H 2.932477 -2.393466 -2.562200
H 2.498522 -0.860047 -2.396991
H -3.390529 -3.848055 1.653390
H -5.234838 -4.979820 2.562599
H -6.928205 -3.782364 3.628297
H -6.789057 -1.466282 3.802252
H -4.961258 -0.330764 2.898005
H 3.298037 4.445922 -1.138461
H 6.795619 4.511613 -3.136122
H 6.762601 2.195530 -3.288607
H 4.991404 0.977429 -2.352647
H -3.822126 5.459442 -4.130871
H 4.349906 -1.194133 6.463978
C 3.963120 -1.727170 5.779773
H 4.514997 -3.527107 6.565173
C 4.062175 -3.112315 5.838170
C 2.739084 -1.903597 3.713811
H 3.234358 -0.176859 4.676309
C 3.302753 -1.122811 4.716079
H 3.566900 -4.840930 4.875672
H 2.453711 -3.823656 3.087294
C 3.500863 -3.893101 4.835193
C 2.838139 -3.288742 3.772904
H -3.402322 0.799124 -4.108539
H -4.560321 1.861444 -5.841689
H -4.770223 4.192541 -5.852855
C -2.923556 2.497710 -3.090038
C -3.487226 1.745077 -4.113186
H -2.664127 4.397122 -2.395402
C 2.969033 0.995447 -0.012480
C -4.175893 2.377589 -5.142854
C 2.620218 -0.392889 1.670713
C -4.300891 3.760857 -5.149373
C 0.592894 -1.436064 2.704754
C -3.737222 4.513490 -4.126224
C -1.554240 -1.481485 2.232854
C -3.048554 3.882855 -3.096557
N 2.009143 0.231365 0.604271
C -3.020488 -0.405088 0.523893
N -0.342232 -0.996309 1.800192
C -2.669787 0.998825 -1.137361
C -0.654963 2.088923 -2.134701
N -2.045741 0.310194 -0.125396
C 1.507265 2.092677 -1.712347
N 0.296436 1.617636 -1.257302
N -0.014171 -1.592597 -1.368363
C 4.239530 0.831031 0.673671
N 0.501150 -3.165994 -2.833156
C 4.026562 -0.022954 1.698195
C -0.040114 -2.193201 3.743211
C -1.369573 -2.220229 3.455277
C -4.299712 -0.157527 -0.105112
C -4.091461 0.712224 -1.118475
C -0.021011 2.868583 -3.169033
C 1.312221 2.866331 -2.911002
C 1.979899 -1.190379 2.619722
C -2.799502 -1.251753 1.621948
C -2.041967 1.837232 -2.067766
C 2.761253 1.844177 -1.109167
C 0.973312 -2.162608 -2.066722
C -0.854487 -3.260777 -2.622056
C -1.162265 -2.285544 -1.719383
C 2.401825 -1.762831 -2.028501
C -3.985095 -1.967599 2.192376
H 5.069233 5.641500 -2.058180
C -4.077310 -3.360064 2.090857
C -5.176584 -4.033868 2.629777
C -6.180105 -3.324403 3.261960
C -6.098267 -1.952397 3.364045
C -5.007247 -1.278593 2.827837
C 3.937884 2.580481 -1.661125
C 3.997081 3.977825 -1.577990