100
Fe1 H44 C37 N8 Cl1 O9
H -0.831230 -6.841763 0.189502
H -1.188148 -5.713307 1.215632
H -1.149580 -5.395369 -0.319476
H 1.076907 -5.261029 3.189098
H 1.733871 -4.043013 3.925361
H -0.271667 -4.490813 4.969083
H -0.431168 -3.116067 4.230649
H -1.041066 -4.419165 3.604323
H -3.528378 4.617439 -2.612806
H -2.898215 3.654669 -3.678912
H 2.523536 1.903771 5.415294
H -5.173076 3.224781 -3.566322
H 2.618975 0.349905 5.216176
H -4.420672 1.966463 -3.011892
H 4.680731 1.375367 4.689471
H -5.082866 2.982969 -2.020328
H 4.100903 0.649931 3.425244
H 3.974740 2.208275 3.565617
H 2.003194 3.833789 4.337938
H -3.138775 -1.544289 1.694212
H 0.769670 4.438319 3.582912
H -1.890871 -2.457801 1.438295
H 0.497079 4.595049 5.929716
H -0.289316 0.645453 -5.738933
H -1.965392 -0.930803 -6.122200
H -0.659308 3.748707 5.294257
H 0.818044 -0.411355 -6.080090
H 0.526496 3.032227 6.027180
C -2.220333 3.677955 -0.510647
H -1.039759 -0.894979 -7.386558
C -2.351726 3.172388 -1.769737
H -3.279320 5.410045 -0.699265
H -0.896600 -2.054781 -6.340315
H -1.769283 -1.212917 2.380798
C -1.288163 2.792654 0.198697
H 1.335117 -3.648949 -4.430594
H 1.235102 -2.596619 -5.593788
H 3.506694 -2.936947 -5.027868
C -1.518264 1.974971 -1.834164
H 3.116437 -1.450251 -4.719661
H 3.214492 -2.493625 -3.553569
C 0.737639 -2.932021 -1.488379
C 0.769670 -2.957994 -0.093515
C 0.897795 -4.091375 0.817610
C 1.045530 -3.558941 2.069388
C 1.037686 -2.117473 1.912118
C 1.329887 -1.136343 2.867053
C 1.074946 0.235268 2.842304
C -3.009997 4.835070 0.032423
C 1.507693 1.259387 3.765470
C -4.252019 4.364880 0.787564
C 0.870339 2.414711 3.424374
C 0.072831 2.098116 2.231905
C -0.737752 2.958788 1.469171
C 0.716721 -5.547173 0.497981
C -0.746903 -5.907652 0.385310
C 0.988005 -4.310797 3.366145
C -0.307620 -4.062268 4.110539
C -1.220179 1.176992 -2.940873
C -2.185034 -1.557723 1.587192
C 2.634010 1.202068 4.755620
C -0.515495 -0.030725 -3.036131
C 3.971471 1.374471 4.043353
C 0.005500 -0.699290 -4.220555
C 1.058604 3.710644 4.153982
C 0.612130 -1.845211 -3.799923
C 0.283321 3.778710 5.474462
C 0.430402 -1.891782 -2.364361
N -0.923401 1.750623 -0.615648
N -0.194531 -0.749892 -1.919830
N 0.786013 -1.781623 0.610526
N 0.255212 0.791884 1.879912
N 1.129203 -4.211834 -2.138460
N 2.073793 -1.646387 4.044786
N -1.014919 4.267707 2.117266
Cl 2.175247 0.866666 -0.631132
C -3.321810 3.688254 -2.806864
C -4.620050 2.890722 -2.855941
O 2.334618 -4.488574 -2.135236
O -1.832692 -0.769147 0.500458
O 1.496580 -1.693854 5.116400
O 3.226258 -2.020300 3.843057
O -1.803275 4.292784 3.035133
C -0.056601 -0.294031 -5.678232
O -0.397176 5.252867 1.682921
C -1.085518 -1.120670 -6.454225
C 1.480237 -2.717973 -4.662365
C 2.970010 -2.366002 -4.473105
N -1.735291 1.674050 -4.243575
O -2.687072 1.095940 -4.728480
O -1.159385 2.625177 -4.755256
O 0.251290 -4.871443 -2.640352
H -2.462201 -0.205367 0.320620
H -2.449127 5.351831 0.630159
Fe 0.101005 0.051581 -0.042938
H -4.718758 5.127931 1.141000
H -4.829232 3.887525 0.187833
H -3.989233 3.789009 1.508083
H 1.162541 -5.749131 -0.339548
H 1.127896 -6.084981 1.193752