12
H6 C6
C 1.163089 -0.457265 0.550244
H -0.655113 -0.672483 -2.111683
C 0.779187 -0.866178 -0.720337
H -1.973442 0.778857 -0.887940
C -0.763085 0.856114 0.704485
H -1.298948 1.468657 1.193938
C -0.381849 -0.399598 -1.243229
H 0.613896 0.687803 2.101802
C -1.156318 0.458789 -0.523105
H 1.970882 -0.774573 0.936341
H 1.323048 -1.467132 -1.215598
C 0.360627 0.406365 1.230527