24
B11 H1 C1 Cl11
B 0.718534 1.378960 0.875213
B 0.151098 -0.052581 1.796902
B 0.526747 -1.492015 0.825788
B 1.330236 -0.964854 -0.688116
B 1.430374 0.799715 -0.650222
B -0.210085 1.472082 -0.641736
B -1.004891 0.946499 0.875391
B -1.124930 -0.852793 0.854838
C 1.546960 -0.107823 0.785146
B -0.382124 -1.409942 -0.689006
B 0.167782 0.013708 -1.599647
B -1.339700 0.084733 -0.663377
Cl 1.415944 2.784933 1.688252
Cl 0.284059 -0.079097 3.555248
Cl 1.050723 -3.004052 1.584936
Cl 2.614493 -1.922740 -1.429320
Cl 2.816741 1.667321 -1.349793
Cl -0.537921 3.033520 -1.400932
Cl -2.215492 1.958995 1.684745
Cl -2.452099 -1.721819 1.642192
Cl -0.907597 -2.896094 -1.509728
Cl 0.177544 0.050483 -3.378763
Cl -2.918581 0.195058 -1.476897
H 2.388145 -0.234089 1.188856