14
H5 C6 N1 O2
C 0.958854 -0.471105 -0.753477
C 0.932195 0.093979 -2.015522
H -1.597824 1.158202 0.511071
C -0.032892 1.034038 -2.339756
H -0.046222 1.414808 -3.211460
N 0.013763 -0.660386 1.487574
C -0.968652 1.421430 -1.414467
C 0.005765 -0.061640 0.155426
C -0.960654 0.886145 -0.139983
O -0.928662 -0.441582 2.243933
H 1.612020 -1.120897 -0.520277
H 1.578696 -0.163454 -2.662767
H -1.628483 2.063220 -1.650626
O 0.970851 -1.370604 1.813772