24
B11 H1 C1 Cl11
B -0.686001 -1.399888 -0.884705
B -1.435939 -0.825740 0.633353
B -1.349140 0.948189 0.657731
B -0.538928 1.478652 -0.852480
B -0.113247 0.027681 -1.795315
B 1.037733 -0.945874 -0.846436
B 0.207491 -1.470096 0.655944
B -0.196030 0.002718 1.590930
B 0.356389 1.424045 0.679532
B 1.129277 0.845217 -0.834179
B 1.333081 -0.072171 0.686157
C -1.528857 0.086968 -0.817115
H -2.375314 0.135333 -1.262059
Cl -1.370310 -2.808890 -1.695239
Cl -2.837150 -1.677288 1.301750
Cl -2.650298 1.905518 1.390453
Cl -1.078254 2.962854 -1.636214
Cl -0.205307 0.041722 -3.560339
Cl 2.276246 -1.953441 -1.612653
Cl 0.536003 -3.032932 1.430521
Cl -0.226487 0.006930 3.376720
Cl 0.850137 2.927594 1.494435
Cl 2.470557 1.727657 -1.607256
Cl 2.898192 -0.136919 1.524892