12
H6 C6
H -1.279294 1.435805 1.237367
C 0.750921 -0.853661 -0.736585
H 0.648546 0.646811 2.120865
H -0.680999 -0.654337 -2.103762
H 1.986068 -0.801062 0.867784
C -0.396476 -0.383033 -1.239034
C -1.158305 0.486244 -0.512255
H 1.280080 -1.454404 -1.248768
C -0.744817 0.840599 0.726919
C 0.382637 0.383813 1.247140
C 1.167069 -0.474391 0.513503
H -1.966668 0.832294 -0.869763