92
H40 C48 N4
H -4.849932 -1.268392 -0.494495
H -4.896127 1.195138 -0.184696
H -4.613514 -6.259420 -1.495275
H -5.594761 -6.710313 -3.915075
H -6.341955 -5.437203 -4.533984
H -6.835763 -6.056596 -3.143319
H -5.306953 -3.384001 -4.235114
H -4.131912 2.611785 -2.457738
H -5.724396 4.215654 -2.966657
H -4.743753 6.286018 0.347939
H -6.479437 6.637059 -2.610614
H -6.400662 7.203406 -1.116132
H 1.548014 -4.722639 -1.140787
H -7.387628 5.991143 -1.461937
H -0.765528 -4.597824 -2.018097
H 1.545481 -0.010884 -0.157282
H -0.153694 -1.695882 0.306508
H -1.219656 0.098329 -1.021471
H -0.147251 1.502495 0.639882
H 4.105759 0.989194 2.654391
H 6.605115 -3.956589 0.629890
H 4.137615 -1.471216 2.411728
H 3.878645 -6.382674 2.361866
H 2.173562 -4.961347 1.697338
H 6.423604 -6.476285 2.962201
H 7.407077 -5.758601 1.922734
H 6.544150 -7.027030 1.464433
H -3.057736 -4.895819 -0.425100
H -0.929100 4.945820 -0.842451
H 1.419054 4.880293 -0.086877
H 2.006045 4.421598 2.680388
H 3.627713 5.768037 3.657205
H 6.500971 3.897377 1.503385
H 4.883627 2.550938 0.511388
H 7.063990 5.867889 2.881255
H 6.575373 5.225093 4.263252
H 5.922700 6.590254 3.739389
H 4.930013 -2.488456 0.040327
H -3.830755 -1.973595 -3.130176
C -4.442255 -5.390397 -1.837855
C -5.117948 -4.962907 -2.966679
C -6.052718 -5.869374 -3.703334
H -3.055882 4.750797 0.817266
C -4.863172 -3.686677 -3.451096
C 0.920599 -4.031477 -0.960082
C -0.356543 -3.969070 -1.434709
C -4.237310 3.368474 -1.892508
C -5.198692 4.313946 -2.181931
C -5.418235 5.412315 -1.346421
C -4.611985 5.546491 -0.232776
C -6.518454 6.398351 -1.661292
C 2.573751 1.004796 1.201132
C 3.551279 0.482134 2.073456
C 3.567007 -0.873665 1.942664
C 2.590788 -1.237188 0.993809
C 2.323675 -2.546182 0.539275
C 1.150458 -2.889423 -0.148977
C -0.969430 -2.803613 -0.909082
C -2.290909 -2.374562 -1.056138
C -2.759381 -1.081170 -0.738583
C -4.097637 -0.689564 -0.520536
C -4.124859 0.667796 -0.354523
C -2.796906 1.148333 -0.479124
C 5.706591 -4.150051 0.874174
C 5.430258 -5.306148 1.595533
C -2.380047 2.508813 -0.477255
C -1.067022 2.909780 -0.250482
C 4.092754 -5.588541 1.885412
C 3.075659 -4.739801 1.497727
C -0.486297 4.192251 -0.470335
C 6.549498 -6.221975 2.023948
C 0.805873 4.154807 -0.056539
C 1.090806 2.842692 0.431082
C 2.278512 2.366836 1.004327
C -3.521355 -4.579102 -1.191162
C 3.285220 3.326349 1.514407
C 2.921454 4.304585 2.448704
C 3.886622 5.098718 3.034612
C 5.234756 4.933339 2.724889
C 5.590754 3.990988 1.756200
C 4.628393 3.193734 1.163175
C 6.292108 5.724352 3.466803
C 3.369942 -3.557181 0.811444
C 4.710061 -3.285710 0.507872
C -3.282168 -3.291950 -1.673786
C -3.973450 -2.853539 -2.804543
C -3.424988 3.515132 -0.777002
C -3.611030 4.627543 0.056797
N 1.957588 -0.077036 0.592409
N 0.004065 -2.140067 -0.176878
N -1.984677 0.058076 -0.639167
N -0.057458 2.106598 0.244776