97
Fe2 H44 C30 S2 N10 Cl2 O7
Fe 0.063631 -0.455054 1.730827
H 4.744949 -2.314883 1.177220
H -2.175728 -0.397578 2.954721
H 0.239935 -2.064236 -1.526592
H 1.895484 -5.027345 0.471514
H -2.686309 -2.974632 0.825514
H -2.594174 -2.941501 2.392459
H -3.153702 -0.955051 0.675900
H -3.729545 -1.214341 2.104512
H 3.331253 -1.189853 -2.845974
H 2.926244 -1.480834 -1.362585
H 1.768799 -2.942941 -2.276463
H 1.673785 -2.163631 -3.629483
H -0.769711 -2.280311 -3.816993
H -0.764912 -3.254089 -2.595945
H -2.750611 -1.970604 -3.168509
H -2.420461 -2.309121 -1.669434
H -1.070109 -2.816177 5.525379
H 0.110370 -3.846135 5.556254
H -0.684294 -3.604131 4.225833
H 1.688181 -0.494091 6.118884
H 1.660348 -1.959080 6.677592
H 0.347425 -1.101982 6.658798
C 2.870579 -1.650813 1.460450
C 3.847593 -2.554006 1.135511
C 3.484812 -3.807241 0.748069
C 2.152694 -4.171688 0.727582
C 1.216949 -3.232482 1.094245
C -0.255291 -3.457200 1.108923
C -2.342722 -2.473338 1.580705
C -2.908968 -1.178329 1.587727
C 2.591295 -1.172567 -2.219221
C 1.595086 -2.072879 -2.667410
C -0.817697 -2.317764 -2.847981
C -2.111425 -1.829435 -2.453324
C 3.099956 -0.220396 1.808132
C -0.342627 -3.189267 5.022193
C 1.164163 -1.295009 6.191802
S 0.791689 -1.903045 4.578030
N 1.587408 -2.006616 1.445582
Fe -0.063631 0.455054 -1.730827
N -0.906953 -2.391230 1.493804
H -4.744949 2.314884 -1.177220
N -2.152694 -0.161336 2.076600
H 2.175728 0.397578 -2.954721
H -0.239935 2.064237 1.526592
N 0.268727 -1.698349 -2.358960
H -1.895484 5.027345 -0.471514
N -2.006814 -0.396137 -2.152450
Cl 4.671049 -4.951143 0.287296
H 2.686309 2.974633 -0.825514
O -0.713086 -4.572147 0.774621
H 2.594174 2.941501 -2.392459
H 3.153702 0.955052 -0.675900
O -4.266999 -0.253528 -1.712179
H 3.729545 1.214342 -2.104512
O -0.065262 -0.828287 3.933120
H -3.331253 1.189853 2.845974
H -2.926244 1.480834 1.362585
H -1.768799 2.942942 2.276463
H -1.673785 2.163631 3.629483
H 0.769711 2.280312 3.816993
H 0.764912 3.254090 2.595945
H 2.750611 1.970604 3.168509
H 2.420461 2.309122 1.669434
H 1.070109 2.816178 -5.525379
H -0.110370 3.846135 -5.556254
H 0.684294 3.604131 -4.225833
H -1.688181 0.494092 -6.118884
H -1.660348 1.959080 -6.677592
H -0.347425 1.101983 -6.658798
C -2.870579 1.650813 -1.460450
C -3.847593 2.554007 -1.135511
C -3.484812 3.807242 -0.748069
C -2.152694 4.171688 -0.727582
C -1.216949 3.232482 -1.094245
C 0.255291 3.457200 -1.108923
C 2.342722 2.473339 -1.580705
C 2.908968 1.178329 -1.587727
C -2.591295 1.172567 2.219221
C -1.595086 2.072880 2.667410
C 0.817697 2.317765 2.847981
C 2.111425 1.829435 2.453324
C -3.099956 0.220397 -1.808132
C 0.342627 3.189267 -5.022193
C -1.164163 1.295010 -6.191802
S -0.791689 1.903045 -4.578030
N -1.587408 2.006617 -1.445582
N 0.906953 2.391230 -1.493804
N 2.152694 0.161336 -2.076600
N -0.268727 1.698350 2.358960
N 2.006814 0.396138 2.152450
Cl -4.671049 4.951143 -0.287296
O 0.713086 4.572147 -0.774621
O 4.266999 0.253528 1.712179
O 0.000000 0.000000 0.000000
O 0.065262 0.828288 -3.933120