157
H56 Ru2 C88 N8 O3
C 4.648929 2.580416 3.758026
H -2.827893 -4.470359 1.975181
C 4.648929 -2.580416 -3.758026
H 2.113753 4.070836 -4.539133
H -2.113753 4.070836 4.539133
H -4.470359 -2.827893 -1.975181
H -4.470359 2.827893 1.975181
H 2.827893 -4.470359 -1.975181
H -0.312781 -5.316513 1.975181
C 5.770630 -3.335487 -4.080134
C 3.335487 -5.770630 4.080134
H -6.062461 3.454412 -5.111049
H -5.316513 -0.312781 -1.975181
H -5.316513 0.312781 1.975181
H 0.312781 -5.316513 -1.975181
H -4.522879 -7.386080 -3.322810
H -7.386080 -4.522879 3.322810
C -1.916369 3.894857 -1.975181
H -4.250525 -6.717834 -0.962585
H -6.717834 -4.250525 0.962585
C 1.916369 3.894857 1.975181
C -0.578440 4.271763 -1.975181
H 2.909866 -4.726208 0.390669
H -2.909866 -4.726208 -0.390669
H -4.726208 2.909866 -0.390669
H -4.726208 -2.909866 0.390669
C 0.578440 4.271763 1.975181
H 6.062461 3.454412 5.111049
H 2.113753 -4.070836 4.539133
H -2.113753 -4.070836 -4.539133
H -4.070836 2.113753 -4.539133
H -4.070836 -2.113753 4.539133
H -3.454412 -6.062461 -5.111049
C -3.937217 6.516044 3.072970
C -6.516044 3.937217 -3.072970
Ru 0.000000 0.000000 -1.902522
Ru 0.000000 0.000000 1.902522
C -1.971350 2.505940 -1.975181
C -1.971350 -2.505940 1.975181
C 2.505940 -1.971350 1.975181
C 2.505940 1.971350 -1.975181
C -3.783864 6.139741 1.743692
C -6.139741 3.783864 -1.743692
C -2.505940 -1.971350 -1.975181
C -2.505940 1.971350 1.975181
C 1.971350 2.505940 1.975181
C 1.971350 -2.505940 -1.975181
C -1.916369 -3.894857 1.975181
C 3.028792 5.018040 -1.421584
C -3.028792 5.018040 1.421584
C -3.894857 -1.916369 -1.975181
C -3.894857 1.916369 1.975181
C 1.916369 -3.894857 -1.975181
C -0.578440 -4.271763 1.975181
C 2.427068 4.272634 -2.428752
C -2.427068 4.272634 2.428752
C -4.271763 -0.578440 -1.975181
C -4.271763 0.578440 1.975181
C 0.578440 -4.271763 -1.975181
C 0.193460 3.115790 -1.975181
C 0.193460 -3.115790 1.975181
C 3.115790 0.193460 1.975181
C 3.115790 -0.193460 -1.975181
C -2.580416 4.648929 3.758026
H 3.454412 -6.062461 5.111049
C 2.580416 4.648929 -3.758026
C -3.115790 0.193460 -1.975181
C -3.115790 -0.193460 1.975181
C -0.193460 3.115790 1.975181
C -0.193460 -3.115790 -1.975181
C -3.335487 5.770630 4.080134
C -3.937217 -6.516044 -3.072970
C -5.770630 3.335487 -4.080134
C -6.516044 -3.937217 3.072970
C -3.783864 -6.139741 -1.743692
C -6.139741 -3.783864 1.743692
H 7.386080 4.522879 3.322810
C 3.028792 -5.018040 1.421584
C -3.028792 -5.018040 -1.421584
H 4.522879 7.386080 -3.322810
C -5.018040 3.028792 -1.421584
C -5.018040 -3.028792 1.421584
H 6.717834 4.250525 0.962585
C 2.427068 -4.272634 2.428752
C -2.427068 -4.272634 -2.428752
H 4.250525 6.717834 -0.962585
C -4.272634 2.427068 -2.428752
C -4.272634 -2.427068 2.428752
C 2.580416 -4.648929 3.758026
C -2.580416 -4.648929 -3.758026
C -4.648929 2.580416 -3.758026
C -4.648929 -2.580416 3.758026
C -3.335487 -5.770630 -4.080134
H 4.470359 -2.827893 1.975181
H 4.470359 2.827893 -1.975181
C -5.770630 -3.335487 4.080134
C 3.026657 1.588341 2.070956
C 3.026657 -1.588341 -2.070956
C 1.588341 3.026657 -2.070956
C 1.588341 -3.026657 2.070956
C -1.588341 3.026657 2.070956
C -1.588341 -3.026657 -2.070956
H 5.316513 -0.312781 1.975181
H 5.316513 0.312781 -1.975181
C -3.026657 1.588341 -2.070956
C -3.026657 -1.588341 2.070956
H 3.454412 6.062461 -5.111049
N -0.667400 2.024455 -1.975181
N -0.667400 -2.024455 1.975181
N 2.024455 -0.667400 1.975181
N 2.024455 0.667400 -1.975181
H 7.386080 -4.522879 -3.322810
N -2.024455 -0.667400 -1.975181
N -2.024455 0.667400 1.975181
H 4.522879 -7.386080 3.322810
N 0.667400 2.024455 1.975181
N 0.667400 -2.024455 -1.975181
O 0.000000 0.000000 0.000000
O 0.000000 0.000000 -4.011752
O 0.000000 0.000000 4.011752
H 6.717834 -4.250525 -0.962585
H 4.250525 -6.717834 0.962585
H 4.726208 2.909866 0.390669
H 4.726208 -2.909866 -0.390669
H -3.454412 6.062461 5.111049
H 4.070836 2.113753 4.539133
H 4.070836 -2.113753 -4.539133
H 6.062461 -3.454412 -5.111049
C 6.516044 3.937217 3.072970
C 3.937217 6.516044 -3.072970
C 6.139741 3.783864 1.743692
C 3.783864 6.139741 -1.743692
C 3.894857 -1.916369 1.975181
C 3.894857 1.916369 -1.975181
C 4.271763 -0.578440 1.975181
C 4.271763 0.578440 -1.975181
H -6.062461 -3.454412 5.111049
H -2.827893 4.470359 -1.975181
H 2.827893 4.470359 1.975181
C 5.770630 3.335487 4.080134
H -0.312781 5.316513 -1.975181
C 6.516044 -3.937217 -3.072970
C 3.335487 5.770630 -4.080134
C 3.937217 -6.516044 3.072970
H 0.312781 5.316513 1.975181
C 6.139741 -3.783864 -1.743692
C 3.783864 -6.139741 1.743692
H -4.522879 7.386080 3.322810
H -7.386080 4.522879 -3.322810
C 5.018040 3.028792 1.421584
C 5.018040 -3.028792 -1.421584
H -4.250525 6.717834 0.962585
H -6.717834 4.250525 -0.962585
C 4.272634 2.427068 2.428752
C 4.272634 -2.427068 -2.428752
H 2.909866 4.726208 -0.390669
H -2.909866 4.726208 0.390669