85
Ni1 H44 C36 N4
H -1.139819 -6.081498 0.669672
H 6.081498 -1.139819 -0.669672
H 2.247157 5.092276 1.261378
H -6.081498 1.139819 -0.669672
H -2.247157 -5.092276 1.261378
H 5.092276 -2.247157 -1.261379
H 3.127121 6.426987 -0.471973
H -5.092276 2.247157 -1.261379
H -3.127121 -6.426987 -0.471973
H 6.426987 -3.127121 0.471973
H 2.075889 5.786208 -1.492492
H -6.426987 3.127121 0.471973
H -2.075889 -5.786208 -1.492492
H 5.786208 -2.075889 1.492492
H 3.221614 4.873761 -0.847880
H -5.786208 2.075889 1.492492
H -3.221614 -4.873761 -0.847880
H 4.873761 -3.221614 0.847880
H 0.961169 -6.137603 -0.104419
H -4.873761 3.221614 0.847880
H -0.961169 6.137603 -0.104419
H 6.137603 0.961169 0.104419
H 2.227963 -5.217774 -0.441343
H -6.137603 -0.961169 0.104419
H -2.227963 5.217774 -0.441343
H 5.217774 2.227963 0.441343
H 1.703823 -6.509668 -2.326450
H -5.217774 -2.227963 0.441343
H -1.703823 6.509668 -2.326450
H 6.509668 1.703823 2.326450
H 1.427727 -4.971207 -2.673120
H -6.509668 -1.703823 2.326450
H -1.427727 4.971207 -2.673120
H 4.971207 1.427727 2.673120
H 0.206703 -5.945664 -2.327842
H -4.971207 -1.427727 2.673120
H -0.206703 5.945664 -2.327842
H 5.945664 0.206703 2.327842
H 2.833308 -3.025246 -1.059502
H -5.945664 -0.206703 2.327842
H 3.025246 2.833308 1.059502
H -2.833308 3.025246 -1.059502
C 1.129780 2.723755 0.341519
H -3.025246 -2.833308 1.059502
C -1.129780 -2.723755 0.341519
C 2.723755 -1.129780 -0.341519
C 0.787391 4.112947 0.195890
C -2.723755 1.129780 -0.341519
C -0.787391 -4.112947 0.195890
C 4.112947 -0.787391 -0.195890
C 0.481766 -4.153992 -0.295018
C -4.112947 0.787391 -0.195890
C -0.481766 4.153992 -0.295018
C 4.153992 0.481766 0.295018
C 0.937841 -2.788719 -0.388716
C -4.153992 -0.481766 0.295018
C 2.788719 0.937841 0.388716
C -0.937841 2.788719 -0.388716
C 2.234755 -2.386977 -0.646282
C -2.788719 -0.937841 0.388716
C 2.386977 2.234755 0.646282
C -2.234755 2.386977 -0.646282
C 1.696441 5.289087 0.462784
C -2.386977 -2.234755 0.646282
C -1.696441 -5.289087 0.462784
C 5.289087 -1.696441 -0.462784
C 2.609921 5.623060 -0.687772
C -5.289087 1.696441 -0.462784
C -2.609921 -5.623060 -0.687772
C 5.623060 -2.609921 0.687771
C 1.273881 -5.375312 -0.652826
C -5.623060 2.609921 0.687771
C -1.273881 5.375312 -0.652826
C 5.375312 1.273881 0.652826
C 1.141296 -5.732465 -2.125966
C -5.375312 -1.273881 0.652826
C -1.141296 5.732465 -2.125966
C 5.732465 1.141296 2.125966
N 0.071755 1.915103 -0.010860
C -5.732465 -1.141296 2.125966
N -0.071755 -1.915103 -0.010860
N 1.915103 -0.071755 0.010860
N -1.915103 0.071755 0.010860
Ni -0.000000 -0.000000 -0.000000
H 1.139819 6.081498 0.669672