148
Ni2 H68 C56 N8 O14
H 2.488711 -5.080725 3.411040
H 2.881725 -4.207698 1.551100
C -2.063895 2.598011 -8.770493
C -2.961327 6.892023 -5.550651
H 3.348664 -2.440724 9.110313
H 2.088087 -1.969345 8.304143
H 4.303409 -6.294038 4.554990
H 2.830709 -6.821202 4.658719
H 4.042804 -5.464244 0.044032
H 4.128986 -5.938412 -1.437368
H 5.949971 -4.535432 -0.972792
H 4.935772 -3.411374 -0.567753
H 5.021866 -3.889726 -2.058487
O -2.357672 3.669073 -7.877142
O -2.744282 5.730311 -6.398806
H 2.617964 -5.923071 -3.690296
H 3.258751 -4.513118 -3.934248
O 3.157774 -3.312357 7.350067
O 3.317603 -5.430773 5.944898
Ni -0.233140 1.535595 -2.197301
Ni -0.077832 -1.628641 2.144257
H -1.979298 -0.060120 -5.354385
H -1.603643 1.521370 -6.591223
H -2.314431 5.235223 -3.818027
H -2.974178 4.327330 -1.929762
H 2.535754 0.310846 4.582186
H -4.879582 7.230914 0.514639
H 2.203445 -1.209281 6.043589
H -3.390643 7.126318 0.035285
H -3.732868 7.007776 1.560471
H -0.080016 -1.251120 -2.471046
H -0.313694 2.892274 0.036121
H -0.065653 1.281497 2.156593
H 0.039297 -2.931628 -0.433649
H -0.377627 -5.725036 -3.983025
H -0.577615 -5.312231 -5.483824
H -1.820626 -5.461455 -4.539391
H -2.669861 -3.608015 -6.182863
H -2.827057 -2.066968 -6.264861
H -1.787059 -2.846556 -8.191213
H -0.614938 -3.472737 -7.358411
H -0.773997 -1.916350 -7.440682
C 3.014213 -2.214797 8.240077
H -3.628739 6.712118 -4.883752
H -4.376124 5.063686 -0.341575
C 2.860267 -4.319267 5.287139
H -4.716711 4.945144 1.169658
H -1.929437 4.710849 4.061631
H -3.378212 4.360801 3.576696
H -2.820117 5.812593 3.390223
H 0.257679 5.809804 3.256741
H 1.783292 5.682894 3.594141
H 0.711680 5.476491 4.720397
H 3.413974 2.363716 5.153348
H 3.242030 3.904763 4.992115
H 2.778381 3.257663 7.299466
H 1.672679 2.285618 6.757350
H 1.501486 3.836427 6.598072
H 3.516331 -1.478441 7.884750
C 3.604347 -6.550647 5.158957
C 3.991510 -5.175559 -0.870005
C 5.079402 -4.167254 -1.141547
H 1.784188 -4.790646 -4.383123
H 3.202246 4.221340 -2.841918
H 3.870610 2.858803 -2.452114
H 3.368925 3.835032 -1.332658
H 2.727284 -0.583100 1.011285
H 3.141074 0.499119 -0.045343
H 3.251677 -1.023798 -0.401105
H -1.201140 -3.348617 6.035527
H -0.946749 -4.812960 5.538273
H -2.408007 -4.248142 5.595402
H -2.868268 1.851893 2.572528
H -4.187058 1.006758 2.631859
H -3.675030 1.564603 1.260172
C -0.148344 -3.179869 -3.095007
C -0.769982 -3.729346 -4.223676
C -1.432358 -2.654100 -4.907989
C -1.083332 -1.482625 -4.204866
C -1.441639 -0.154954 -4.565926
C -1.549383 2.181022 -4.624094
C -1.694663 2.285618 -6.018139
C -2.178274 3.472433 -6.549021
C -2.314257 4.540706 -5.729344
C -2.173191 4.469581 -4.381573
C -1.737274 3.274398 -3.767551
C -2.244549 3.828059 -1.556504
C -2.006483 3.928471 -0.182019
C -2.735916 4.567204 0.777529
C -2.118892 4.454240 1.992513
C -0.980451 3.706728 1.809664
C 0.052048 3.246506 2.693733
C 0.901970 3.872687 3.588590
C 1.680717 2.876933 4.161458
C 1.315490 1.662226 3.601827
C 1.802008 0.327582 3.961240
C 1.891942 -1.972134 4.177333
H -3.244103 7.628378 -6.096676
C 2.291148 -2.001421 5.507396
H -2.132454 7.113766 -5.119628
C 2.788044 -3.179869 6.071357
C 2.461549 -4.292769 3.957289
C 1.936309 -3.111533 3.386998
C 2.114945 -3.734924 1.216208
C 1.798059 -3.895305 -0.166093
C 2.567180 -4.568903 -1.121056
C 1.959685 -4.496383 -2.356503
C 0.788120 -3.765606 -2.138482
C -0.901152 -5.190900 -4.586060
C -2.187114 -2.779615 -6.203965
C -1.245938 -2.750328 -7.404843
C -4.065977 5.267299 0.542901
C -4.034246 6.805557 0.671792
C -2.593903 4.879597 3.389147
C 0.906079 5.344003 3.789653
C 2.777971 3.081941 5.163952
H -2.262664 2.886696 -9.662854
C 2.134124 3.114018 6.602540
H -2.616586 1.846315 -8.544317
H -1.139584 2.344191 -8.714980
C 2.447726 -4.977524 -3.715506
C 1.813805 2.842068 -2.197985
C 3.194676 3.496141 -2.212926
C 1.301734 -0.320913 -0.413613
C 2.740617 -0.364146 0.076201
C -1.335985 -3.631723 3.974366
C -1.488522 -4.029188 5.423731
C -2.635356 -0.089407 1.882669
C -3.408357 1.206188 2.108831
N -1.138484 0.964920 -3.945466
N -1.512005 3.129358 -2.388277
N 1.320733 -0.795081 3.529759
N 1.455738 -3.029250 2.078650
N -0.365691 -1.824305 -3.103549
N -0.929020 3.398519 0.452814
N 0.342245 1.900705 2.664456
N 0.696203 -3.408585 -0.823996
O -1.544899 0.702733 -0.895173
O -1.397782 -2.828426 0.998867
O 1.263349 2.691450 -1.050744
O 1.300559 2.408344 -3.251858
O 1.093533 -0.039201 -1.651516
O 0.383019 -0.633306 0.371304
O -0.850340 -2.430962 3.845493
O -1.697182 -4.368078 3.047381
O -1.458825 -0.141008 2.286148
O -3.267158 -0.993116 1.286528
H 3.903597 -7.282819 5.704322