125
H44 Ru1 C70 N6 Cl4
H 2.661966 4.156038 -2.841383
H 4.202325 3.832612 1.464689
H 2.227962 2.772266 0.877082
H -2.400228 -2.543793 -0.848784
H -4.609379 -3.110812 -1.337534
H -3.001430 -3.677831 2.892618
H -0.960663 -5.112778 2.199445
H 0.190752 -6.038022 3.984406
H 1.377741 -4.818010 5.414493
H 1.690793 -2.531511 4.944279
H 0.537007 -1.579656 3.232525
Ru 0.059840 -0.053617 -0.041511
C -2.426315 -0.062829 -1.855877
C -2.901822 -0.550015 -3.105813
C 7.032837 -0.384208 0.962480
H -5.324418 -0.267529 0.236863
C -1.872545 -1.221431 -3.694690
C 7.412294 -1.284888 1.867917
H -7.573887 0.086602 -0.163248
C -0.763819 -1.198914 -2.791228
H -6.675048 2.459075 -3.217909
C 0.474159 -1.798685 -3.008958
C 1.544940 -1.772074 -2.111165
C 2.797148 -2.470101 -2.285152
C 3.576220 -2.179427 -1.231358
C 2.818492 -1.315593 -0.350892
C 3.295185 -0.785420 0.840166
C 2.581332 -0.009607 1.732022
C 3.066325 0.553318 2.947033
C 2.067879 1.214499 3.538465
C 0.915278 1.099867 2.691606
C -0.348788 1.699638 2.919799
C -1.439727 1.670980 2.031157
C -2.697864 2.305550 2.236936
C -3.472194 2.023064 1.182092
C -2.721580 1.208358 0.286789
H -5.946965 -3.948035 0.306657
C -3.179300 0.694561 -0.924881
H -5.156034 -4.281696 2.417586
C 0.653216 -2.496712 -4.314672
C -0.090283 -3.608233 -4.626068
C 0.065057 -4.238709 -5.853851
C 0.986426 -3.792463 -6.742399
C 1.725182 -2.674801 -6.474501
C 1.553240 -2.029996 -5.257111
C 4.737122 -1.000355 1.182201
C 5.697622 -0.234777 0.617925
C 6.493296 -2.044325 2.465210
C 5.142666 -1.919458 2.124067
C -0.539702 2.393571 4.237516
C -0.709272 3.779390 4.286769
C -0.856312 4.411913 5.517404
C -0.824295 3.689322 6.663861
C -0.646425 2.336255 6.643250
C -0.499385 1.681215 5.410271
C -4.622423 0.913590 -1.254931
C -0.989122 4.974838 -3.557283
C 0.981683 2.536861 -1.433175
C 0.142134 3.128444 -2.541578
C -0.395034 2.297362 -3.512927
C -1.176479 2.821394 -4.531028
C -1.459886 4.203119 -4.524572
C -0.160245 4.508122 -2.577816
Cl 9.089257 -1.449262 2.284777
C 2.245749 3.324956 -1.061150
C 2.963160 4.074158 -1.965516
C 4.125247 4.704634 -1.577954
C 4.572295 4.635036 -0.333443
C 3.882158 3.898116 0.593022
C 2.705841 3.253311 0.239089
C -1.070942 -2.560169 1.403243
C -2.452403 -3.053496 1.082991
C -2.948069 -2.885642 -0.181239
C -4.273797 -3.227491 -0.476313
C -4.609379 -3.921424 1.757338
C -3.315668 -3.565246 2.024328
C -0.339302 -3.235679 2.530840
C -0.443652 -4.574417 2.753227
C -5.587667 0.291302 -0.457489
C 0.251228 -5.120966 3.844412
C -6.935925 0.500096 -0.698340
C 0.976940 -4.420892 4.675558
C -7.324868 1.308661 -1.714217
C 1.132280 -3.051449 4.411406
C -6.397570 1.914573 -2.517328
C 0.458744 -2.494665 3.376455
H 7.673170 0.156200 0.558161
C -5.046940 1.716014 -2.286381
N -1.125489 -0.468135 -1.689169
N 1.581699 -1.123175 -0.906674
N 1.244931 0.356806 1.592413
N -1.458700 1.020034 0.818743
N 0.681675 1.515408 -0.884491
N -0.574091 -1.630831 0.821307
Cl -1.013075 4.497273 8.183679
Cl 1.232125 -4.674310 -8.224641
H -3.755601 -0.433336 -3.456105
H -1.887961 -1.620596 -4.532989
H 3.022450 -3.022791 -2.998540
H 4.446600 -2.478289 -1.093409
H 3.933147 0.473485 3.275682
H 2.111753 1.668933 4.349364
C -5.064727 -3.729006 0.505285
H -2.937396 2.823441 2.972230
H -4.348502 2.309644 1.054833
H -0.702157 -3.941894 -4.010000
H -0.977264 5.333063 5.553553
H -0.466183 -4.971535 -6.066861
H 2.334684 -2.351375 -7.097078
H 2.052463 -1.268512 -5.072184
H 5.459276 0.403887 -0.013945
H 6.751801 -2.658425 3.113720
H -0.622709 1.853163 7.437510
H 4.511819 -2.463960 2.538009
H -0.723502 4.276811 3.502133
H -1.233397 5.871424 -3.543076
H -0.373690 0.760065 5.387140
H 0.199053 5.085376 -1.944580
H 4.607869 5.191820 -2.205274
H 5.350182 5.083329 -0.090617
H -4.420836 2.131555 -2.832916
Cl -9.028512 1.568426 -1.956127
H -0.230208 1.382353 -3.481414
H -1.507318 2.272798 -5.205731
H -1.978082 4.573626 -5.202355