74
H27 Rh2 C33 N6 Cl1 O5
C 0.775698 -1.585735 0.270671
C -2.727383 -2.427835 -0.774670
H 1.011607 4.546720 -2.500390
C 1.798763 2.621892 2.626067
H -0.484463 4.076950 -2.494101
C 2.839611 3.291469 3.461269
Rh 0.011066 2.449041 0.326949
C -1.839461 2.801184 2.555965
H 4.360576 -1.539784 0.889811
H 3.100415 -0.173551 -3.664325
Rh -0.119574 0.502365 1.973312
C -2.799697 3.547073 3.424441
H 0.775698 -0.163294 -3.719122
H -3.022566 2.606096 -0.168461
H 2.952231 -0.052519 1.953084
H -1.477891 0.084925 -3.678084
H -3.749263 0.523925 -3.510757
H -4.529305 1.828615 -1.734313
H 3.499920 -3.092693 -0.593860
C 2.527830 1.513725 -0.986065
C 3.265196 0.891331 -1.965338
C 2.615556 0.258269 -2.997130
C 0.152137 4.671856 -2.091441
N 1.281896 -0.666913 1.128566
C 1.230920 0.269962 -3.034723
N -1.330892 -0.653989 0.869090
C 0.529119 0.936872 -2.036419
N 1.176388 1.539778 -1.000129
H 2.725805 -6.141074 -3.456054
C -0.933758 1.083136 -2.007765
N -1.394908 1.814255 -0.958047
H -4.324218 -1.447471 -0.022304
H 1.664804 -7.640647 -4.835506
H -0.645688 -7.556540 -5.146065
C -1.805083 0.591211 -2.970397
Cl -0.318615 -1.134837 3.849952
C 2.595403 -0.667323 1.354383
H -3.132815 0.004921 1.329748
O 1.539144 3.132690 1.493984
C -3.158896 0.856867 -2.875371
C 3.446574 -1.564400 0.718040
H 2.533758 4.165160 3.712263
O 1.242064 1.579370 3.074908
C -3.624788 1.627168 -1.813171
H 3.000835 2.770208 4.250488
C 2.934449 -2.490197 -0.166877
O -1.294024 3.408193 1.591040
C -2.714342 2.088733 -0.877686
C 1.566410 -2.513788 -0.414924
H 3.652847 3.369217 2.956325
O -1.627261 1.581011 2.850118
H -2.777173 4.479024 3.198509
N -1.153071 -4.266915 -2.302702
H -1.927187 -6.032350 -4.023840
H -0.132377 5.580626 -2.217449
H -3.686432 3.205105 3.285699
H -2.553118 3.434861 4.344268
C 0.903729 -3.443688 -1.334236
H 4.194609 0.899331 -1.929803
H -3.199202 -3.004483 -1.331127
O 0.237492 4.412354 -0.795705
C 1.042430 -5.159069 -2.837608
C 1.801134 -6.114200 -3.549727
N 1.676659 -4.301378 -2.006601
C 1.164534 -6.999585 -4.382379
C -0.240255 -6.956505 -4.562619
H 2.975940 1.933237 -0.286678
C -1.004887 -6.053684 -3.898608
C -2.674036 -0.618090 0.813799
C -1.323780 -2.492043 -0.704327
C -3.394805 -1.491986 -0.000050
C -0.376585 -5.137939 -3.004475
C -0.522398 -3.431790 -1.471174
C -0.675324 -1.578965 0.124596