29
H20 C8 N1
H -0.050439 2.424978 1.350778
H 0.769325 -0.175452 -1.879997
N -0.010883 0.043414 -0.011045
H 1.362665 -1.199302 -0.859097
H 0.064137 -2.317746 -2.407047
H -1.179831 -1.442280 -2.027322
H -0.596039 -2.464275 -0.993972
H -1.549475 1.287985 0.373453
H -1.973679 0.041560 -0.475222
H -2.047335 1.972406 -1.803222
H -0.968411 0.989362 -2.377997
H -0.525111 2.232078 -1.529322
C -0.323239 -0.913662 1.147428
C 0.849801 -1.637034 1.718053
H -0.746079 -0.405447 1.857078
C 1.092593 0.987508 0.402503
H -0.965683 -1.570262 0.836178
C 0.706581 1.885231 1.589403
H 0.557905 -2.208313 2.429778
C 0.541537 -0.778262 -1.155822
H 1.484061 -1.000838 2.058353
C -0.376435 -1.848482 -1.695322
H 1.264457 -2.165652 1.031228
C -1.283495 0.714852 -0.361097
H 1.327201 1.549512 -0.352797
C -1.197563 1.555076 -1.635147
H 1.876893 0.470018 0.641128
H 1.445869 2.454654 1.815578
H 0.484249 1.338065 2.346778