10
C8 N2
C -1.396703 -0.354786 1.295412
C 1.396703 0.354786 -1.295412
C -0.125261 -1.875534 -0.476244
C 0.125261 1.875534 0.476244
C -1.197951 -1.873868 0.649756
C 1.197951 1.873868 -0.649756
C -0.610530 0.736222 0.785682
C 0.610530 -0.736222 -0.785682
N -0.180015 -0.499698 0.460926
N 0.180015 0.499698 -0.460926