94
Fe1 H48 C40 I1 N4
Fe 0.075420 -0.049047 -0.292424
H 1.404666 -6.457596 -0.167325
H 2.823243 -5.799560 -0.040345
H -4.642197 0.394880 1.688816
H 2.918572 -3.136495 -0.329884
H 2.976031 0.461673 3.915487
H 2.226423 -1.847636 3.995215
H -0.209033 -3.485304 3.508656
H -2.552764 -3.298530 2.756476
H -2.727128 -3.053622 -1.164813
H -2.101134 -1.664574 -1.535086
H -4.037136 -2.069043 -2.844744
H -4.229645 -0.776473 -1.976348
H -5.325241 -3.314610 -1.355730
H -6.161642 -2.070280 -1.820799
H -5.709727 -0.959536 0.165074
H -6.306760 -2.367138 0.519857
H -4.404005 -1.897113 1.842686
H -4.200452 -3.204525 1.004520
H -0.875741 1.931121 -2.104964
H 2.702355 1.271848 -0.624893
C 4.641455 1.411619 0.074138
H 0.698823 -5.490333 1.809992
C 2.224063 -4.133444 2.117407
H 0.428212 -4.431539 -0.626598
C 1.651178 -5.464358 1.625483
H 1.643966 -4.592337 -1.600093
C 1.878125 -5.663500 0.126996
H 1.564418 -2.424036 -0.683993
C -2.970420 -0.143176 0.458111
C -3.894634 0.686790 1.220099
C -3.463595 1.955859 1.119851
C -2.297264 1.944727 0.235894
H 5.486755 3.165556 0.684692
C 2.487543 1.908856 1.354307
C 2.259392 0.492596 1.877127
C 2.573868 -0.013300 3.224097
H 5.259771 2.936728 2.970511
C 2.173966 -1.276184 3.264778
C 1.634031 -1.603965 1.947925
C 1.666067 -2.981882 1.290402
C 0.314598 -2.446300 1.708473
C -0.510837 -3.074650 2.730021
C -1.802956 -2.946011 2.333133
C -1.790875 -2.148205 1.108269
C -2.988261 -1.650968 0.341657
C -2.870989 -2.095018 -1.130366
H -3.836501 2.700478 1.532617
H -1.376460 4.359173 1.904225
C -4.132639 -1.741262 -1.936589
H 0.973870 4.100659 2.622822
C -5.382174 -2.347347 -1.314289
C -5.542245 -1.914429 0.130710
C -4.290722 -2.239736 0.943833
C 3.185051 1.874223 -0.038894
H -2.973675 4.510076 0.272633
C 1.396240 -4.469883 -0.670515
H -3.490059 4.271352 -1.191010
C 1.959961 -3.153812 -0.184618
H -2.381026 6.320910 -1.142672
H -1.105301 5.651743 -0.519932
H -2.027176 5.244800 -3.175989
I 0.856356 -0.364953 -2.590339
H -0.690854 5.969628 -2.787360
H 0.265621 3.962125 -2.083464
H -0.283917 3.735771 -3.534538
H -2.156507 2.616368 -2.703063
H 3.159670 2.759850 -0.433494
N -2.021125 0.575468 -0.097649
N 0.217247 2.011520 0.336377
N 1.689431 -0.419006 1.131289
N -0.563261 -1.832793 0.734846
H 2.913116 2.704189 3.215057
H 3.274440 3.691242 2.050704
C 5.418037 2.266323 1.040139
C 4.767911 2.319510 2.408551
C -1.892983 3.046812 -0.712601
C -0.975539 2.790772 0.481274
C -0.755559 3.756798 1.564400
C 0.530627 3.602185 1.975944
C 1.073890 2.500099 1.196793
C -2.694628 4.348041 -0.641196
C -1.843864 5.513209 -1.132354
C -1.293239 5.250984 -2.540929
C -0.543398 3.906464 -2.614900
C -1.400463 2.746244 -2.109860
C 3.310155 2.763560 2.332642
H 5.061109 1.453674 -0.799208
H 4.663011 0.488885 0.372856
H 6.316672 1.911330 1.128531
H 4.813592 1.441305 2.818055
H 3.191633 -4.148287 2.044550
H 1.995125 -4.004805 3.050841
H 2.068831 -6.191660 2.110357