447
Zn5 P2 H164 C250 N26
C -6.730300 -5.787010 -0.631459
C -7.511913 -6.689409 0.070986
C -7.272188 -6.935552 1.416022
C -6.932700 -6.119367 4.447580
C -8.148568 -5.430756 4.111410
C -8.821127 -5.215497 5.268370
C -8.021874 -5.759988 6.334766
C -8.355274 -5.738848 7.693744
C -9.699146 -5.155753 8.050527
C -9.872300 -3.803717 8.153395
C -11.112674 -3.260145 8.484197
C -12.175836 -4.073573 8.702929
C -12.030639 -5.419175 8.567909
C -10.795353 -5.967527 8.243012
C -7.557698 -6.201720 8.744218
C -4.293183 5.925982 9.719738
C -7.922686 -6.175985 10.147017
C -3.142868 6.209625 10.643428
C -6.873524 -6.642901 10.844702
C -1.924916 5.562375 10.456524
C -0.869126 5.775429 11.326673
C -1.018649 6.636100 12.404207
C -2.211068 7.297320 12.585674
C -3.273807 7.094377 11.707671
C -4.173376 6.398046 8.397630
C -3.098424 7.236290 7.917416
C -3.304976 7.427836 6.597523
C -4.525151 6.743638 6.244941
C -6.315828 6.080763 4.633693
C -6.970466 6.173044 3.347694
C -4.302269 7.323791 3.854364
C -8.162655 5.547669 3.456300
C -3.666762 6.552459 2.884961
C -8.252064 5.038105 4.807565
C -2.902049 7.154304 1.896858
C -9.357555 4.333502 5.330713
C -2.784122 8.529135 1.846765
C -10.508897 4.061808 4.405345
C -11.662873 4.848213 4.452372
C -4.165896 8.710571 3.785848
C -12.712939 4.613468 3.584109
N -0.974507 -0.318570 2.251107
C -12.640853 3.573016 2.674910
N -4.374805 -4.683689 6.865895
C -11.521010 2.777971 2.628237
N -5.407606 3.007753 7.126978
C -10.452965 3.020253 3.487155
N 0.938596 -1.816563 0.257066
C -9.482600 3.887725 6.655684
N 1.604402 0.974643 0.854446
C -10.632376 3.197644 7.188098
N -3.625680 -7.649346 7.950620
C -10.379898 2.931281 8.484482
N -4.263862 -7.367909 5.136589
C -9.070978 3.468971 8.783223
H 4.595090 -9.255613 -4.435019
C -8.448622 3.418051 10.043502
N -6.279776 -6.708711 8.618633
C -9.165577 2.661242 11.125808
C -10.281189 3.193049 11.754514
C -10.958435 2.465100 12.730706
C -10.511930 1.238984 13.093112
N -5.042534 6.128925 7.368406
C -9.412103 0.709566 12.512246
C -8.733191 1.409941 11.509541
C -7.229138 4.019896 10.366049
C -6.610758 3.996366 11.676470
C -5.457156 4.700969 11.582918
C -5.352220 5.173217 10.225011
C -5.085279 6.678931 4.957082
N -6.866416 -6.300618 5.811124
N -7.110965 5.374322 5.502618
N -8.536747 4.038278 7.647215
N -6.445701 4.748948 9.505701
C 3.417027 -9.303408 -2.790206
H -1.512970 -10.643495 4.988404
H 0.553990 -11.505637 4.332701
H 2.489463 -10.242756 4.602048
H -5.394101 -9.312599 12.012127
H -4.934741 -9.507454 14.293576
H 3.338657 -10.250109 -2.757117
H 1.512970 10.643495 -4.988404
H -0.553990 11.505637 -4.332701
H -2.489463 10.242756 -4.602048
C -0.727086 -10.123086 5.110150
C 0.504885 -10.637797 4.715445
C 1.649854 -9.895693 4.878338
H 5.394101 9.312599 -12.012127
H 4.934741 9.507454 -14.293576
C 0.727086 10.123086 -5.110150
C -0.504885 10.637797 -4.715445
C -1.649854 9.895693 -4.878338
H -3.338657 10.250109 2.757117
H -4.595090 9.255613 4.435019
Zn 6.630359 -4.799830 -7.448303
H 6.616745 -1.665459 -7.922944
Zn 5.152013 6.747664 -6.889117
P 2.417824 0.501292 -6.656417
H 0.100857 1.224278 -5.249107
H 6.891309 5.630575 1.554211
H -0.612884 1.180160 -3.040840
H 8.217658 7.145297 0.371223
H 2.729612 -0.477946 -1.874147
H 7.821702 7.549713 -1.890264
H 3.591187 -0.400740 -4.027587
H 8.429627 5.174687 -3.240117
H 5.024258 1.711415 -5.745085
H 9.663365 4.784977 -5.357637
H 5.895506 3.851144 -5.917251
H 9.135160 3.224299 -7.997405
H 2.691053 5.114025 -7.794518
H 11.213491 2.318039 -8.557477
H 1.751310 2.998194 -7.722035
H 13.016705 3.705922 -8.947889
H 2.455915 -2.231641 -6.056434
H 12.779369 5.989034 -8.696013
H 3.913265 -3.994528 -6.310618
H 10.706982 6.908162 -8.154126
H 8.751916 5.882415 -10.507742
H 5.245845 0.178311 -7.701444
H 6.823737 6.735366 -11.790019
H -1.212295 5.011083 -0.403753
H -3.068732 3.845629 -1.554356
H -2.984288 1.979800 -3.991506
H -4.786794 2.558851 -5.356098
H 6.626786 -6.595658 -2.569657
H -5.535593 1.154424 -0.984532
H 8.819184 -5.459617 -2.773893
H -4.272801 -1.213248 -2.621777
H 11.727089 -5.551530 -5.088843
H -3.218371 -3.417316 -2.171856
H 13.484854 -5.167334 -3.612112
H 2.839984 4.821742 -0.145171
H 13.366222 -3.408124 -2.084129
H 3.449167 6.996398 0.425657
H 11.475455 -2.060684 -2.008298
H 2.124851 8.240896 1.898516
H -0.154889 -7.312578 -2.741099
H 9.679652 -2.468776 -3.446128
H 0.452760 -5.141599 -2.174109
H 11.422544 -2.972458 -6.712178
H 10.953832 -2.476129 -9.087911
H 2.017433 8.676563 -10.533826
H 10.586909 -4.060705 -11.516649
H 0.770512 9.060758 -8.424864
H 11.733253 -2.829074 -13.143816
H 10.976230 -0.748170 -13.760753
H 9.099295 0.145222 -12.786092
H 7.972162 -1.023908 -11.091818
H -2.358712 8.132439 -5.562250
H 6.950459 -3.568053 -12.452834
H -0.314100 7.264783 -6.249757
H 1.901272 8.433913 -3.248978
H 3.846655 7.591992 -1.964562
H 4.757550 4.908140 -1.808304
H 5.183442 4.483504 0.446737
H 3.524920 7.972511 -15.336577
H 2.579626 6.248228 -14.112667
H -6.961771 2.345613 -4.561766
H 3.046033 6.044182 -11.838012
H -7.339738 1.674650 -2.363444
C 5.760329 -1.780534 -7.527074
H 4.832613 -4.854831 -12.283261
H 1.817212 -4.966965 -9.722639
H 0.040967 -5.330939 -11.185915
H 0.301303 -6.768454 -13.012317
H 2.311432 -7.897143 -13.314962
H 4.090293 -7.562580 -11.836350
C -3.417027 9.303408 2.790206
H 2.380948 -7.586478 -8.433370
H 2.748588 -7.922878 -6.007703
H 3.758781 -5.606677 -2.900501
H -2.457069 6.617717 1.251779
H -2.267627 8.939433 1.163612
C 1.936236 0.414526 -4.886319
C 0.670261 0.878502 -4.572716
C 0.244685 0.829604 -3.247548
C 2.187838 -0.120038 -2.567716
C 2.711576 -0.085295 -3.857260
C 3.282533 2.107008 -6.725171
C 4.525694 2.391202 -6.181921
C 5.035120 3.676877 -6.281561
C 3.176838 4.410892 -7.380108
C 2.605635 3.147644 -7.335807
C 3.697077 -0.796700 -6.811114
C 3.316064 -2.081272 -6.429849
C 4.192339 -3.132202 -6.594264
C 4.947727 -0.669125 -7.394120
C -0.431333 3.059040 0.037492
C -1.322137 4.070080 -0.484201
C -2.337684 3.436066 -1.106647
C -2.102565 2.020058 -0.961831
C -2.907414 1.017106 -1.524759
C 6.730300 5.787010 0.631459
C -4.078897 1.464721 -2.359919
C 7.511913 6.689409 -0.070986
C -3.870403 1.908844 -3.656735
C 7.272188 6.935552 -1.416022
C -4.942029 2.250024 -4.470737
C 6.932700 6.119367 -4.447580
C 8.148568 5.430756 -4.111410
C 8.821127 5.215497 -5.268370
C -5.377589 1.413618 -1.885842
C 8.021874 5.759988 -6.334766
C -2.667146 -0.371879 -1.475859
C 8.355274 5.738848 -7.693744
C -3.481643 -1.368581 -2.119849
C 9.699146 5.155753 -8.050527
C -2.904196 -2.569696 -1.875701
C 9.872300 3.803717 -8.153395
C -1.726841 -2.322819 -1.084888
C 11.112674 3.260145 -8.484197
C 0.791804 3.305550 0.682905
C 12.175836 4.073573 -8.702929
C 1.147152 4.737367 0.982329
C 12.030639 5.419175 -8.567909
C 2.295843 5.319726 0.454532
C 10.795353 5.967527 -8.243012
C 2.658704 6.616798 0.790698
C 7.557698 6.201720 -8.744218
C 1.870023 7.358718 1.655851
C -0.709396 -6.804300 -2.160676
C 7.922686 6.175985 -10.147017
C -0.350263 -5.509985 -1.824557
C 6.873524 6.642901 -10.844702
C 3.552487 7.821590 -9.313093
C 2.308573 8.450825 -9.659453
C 1.628908 8.663879 -8.508085
C 2.456710 8.172697 -7.435093
C 2.153884 8.287956 -6.063051
C 0.825737 8.857263 -5.681888
C 6.315828 -6.080763 -4.633693
C 6.970466 -6.173044 -3.347694
C -1.567820 8.646048 -5.446441
C 8.162655 -5.547669 -3.456300
C -0.350139 8.126189 -5.852241
C 8.252064 -5.038105 -4.807565
C 3.019917 7.930783 -5.009144
C 9.357555 -4.333502 -5.330713
C 2.704301 8.076740 -3.610193
C 10.508897 -4.061808 -4.405345
C 3.761560 7.610559 -2.909895
C 11.662873 -4.848213 -4.452372
C 4.733118 7.146399 -3.864209
C 12.712939 -4.613468 -3.584109
C 5.953717 6.534996 -3.528197
C 12.640853 -3.573016 -2.674910
C 6.227146 6.282604 -2.073323
C 11.521010 -2.777971 -2.628237
C 5.462695 5.369175 -1.367972
C 10.452965 -3.020253 -3.487155
C 5.712087 5.116966 -0.023401
C 9.482600 -3.887725 -6.655684
C 10.632376 -3.197644 -7.188098
C 10.379898 -2.931281 -8.484482
C 9.070978 -3.468971 -8.783223
C -6.227411 2.140648 -3.996216
C 8.448622 -3.418051 -10.043502
C -6.452518 1.734393 -2.699381
C 9.165577 -2.661242 -11.125808
C 10.281189 -3.193049 -11.754514
C 10.958435 -2.465100 -12.730706
C 10.511930 -1.238984 -13.093112
C 9.412103 -0.709566 -12.512246
C 8.733191 -1.409941 -11.509541
C 7.229138 -4.019896 -10.366049
C 6.610758 -3.996366 -11.676470
C 5.457156 -4.700969 -11.582918
C 5.352220 -5.173217 -10.225011
C 5.830166 6.980589 -9.889318
C 4.568371 7.484087 -10.230136
C 4.264932 7.647692 -11.691486
C 4.822374 8.683364 -12.435660
C 4.548419 8.800829 -13.790951
C 3.712054 7.889790 -14.407614
C 3.155489 6.873235 -13.688780
C 3.435151 6.755587 -12.333338
C 5.085279 -6.678931 -4.957082
N 6.866416 6.300618 -5.811124
N 7.110965 -5.374322 -5.502618
N 8.536747 -4.038278 -7.647215
N 6.445701 -4.748948 -9.505701
C 4.293183 -5.925982 -9.719738
C 3.142868 -6.209625 -10.643428
C 1.924916 -5.562375 -10.456524
C 0.869126 -5.775429 -11.326673
C 1.018649 -6.636100 -12.404207
C 2.211068 -7.297320 -12.585674
C 3.273807 -7.094377 -11.707671
C 4.173376 -6.398046 -8.397630
C 3.098424 -7.236290 -7.917416
C 3.304976 -7.427836 -6.597523
C 4.525151 -6.743638 -6.244941
C 4.302269 -7.323791 -3.854364
C 3.666762 -6.552459 -2.884961
H 6.961771 -2.345613 4.561766
C 2.902049 -7.154304 -1.896858
H 7.339738 -1.674650 2.363444
C 2.784122 -8.529135 -1.846765
C 4.165896 -8.710571 -3.785848
N 0.974507 0.318570 -2.251107
N 4.374805 4.683689 -6.865895
N 5.407606 -3.007753 -7.126978
N -0.938596 1.816563 -0.257066
N -1.604402 -0.974643 -0.854446
N 3.625680 7.649346 -7.950620
N 4.263862 7.367909 -5.136589
N 6.279776 6.708711 -8.618633
N 5.042534 -6.128925 -7.368406
Zn -0.000000 -0.000000 -0.000000
Zn -5.152013 -6.747664 6.889117
P -2.417824 -0.501292 6.656417
H -0.100857 -1.224278 5.249107
H 0.612884 -1.180160 3.040840
H -2.729612 0.477946 1.874147
H -3.591187 0.400740 4.027587
H -5.024258 -1.711415 5.745085
H -5.895506 -3.851144 5.917251
H -2.691053 -5.114025 7.794518
H -1.751310 -2.998194 7.722035
H -2.455915 2.231641 6.056434
H -3.913265 3.994528 6.310618
H -5.245845 -0.178311 7.701444
H 1.212295 -5.011083 0.403753
H 3.068732 -3.845629 1.554356
H 2.984288 -1.979800 3.991506
H 4.786794 -2.558851 5.356098
H 5.535593 -1.154424 0.984532
H 4.272801 1.213248 2.621777
H 3.218371 3.417316 2.171856
H -2.839984 -4.821742 0.145171
H -3.449167 -6.996398 -0.425657
H -2.124851 -8.240896 -1.898516
H 0.154889 7.312578 2.741099
H -0.452760 5.141599 2.174109
H -2.017433 -8.676563 10.533826
H -0.770512 -9.060758 8.424864
H 2.358712 -8.132439 5.562250
H 0.314100 -7.264783 6.249757
H -1.901272 -8.433913 3.248978
H -3.846655 -7.591992 1.964562
Zn -6.630359 4.799830 7.448303
H -4.757550 -4.908140 1.808304
H -5.183442 -4.483504 -0.446737
H -6.616745 1.665459 7.922944
H -3.524920 -7.972511 15.336577
H -2.579626 -6.248228 14.112667
H -3.046033 -6.044182 11.838012
C 6.227411 -2.140648 3.996216
H -4.832613 4.854831 12.283261
C 6.452518 -1.734393 2.699381
H -1.817212 4.966965 9.722639
H -0.040967 5.330939 11.185915
H -0.301303 6.768454 13.012317
H -2.311432 7.897143 13.314962
H -6.891309 -5.630575 -1.554211
H -4.090293 7.562580 11.836350
H -8.217658 -7.145297 -0.371223
H -2.380948 7.586478 8.433370
H -7.821702 -7.549713 1.890264
H -2.748588 7.922878 6.007703
H -8.429627 -5.174687 3.240117
H -3.758781 5.606677 2.900501
H -9.663365 -4.784977 5.357637
H -9.135160 -3.224299 7.997405
H 2.457069 -6.617717 -1.251779
H -11.213491 -2.318039 8.557477
H 2.267627 -8.939433 -1.163612
H -13.016705 -3.705922 8.947889
H -12.779369 -5.989034 8.696013
C -1.936236 -0.414526 4.886319
H -10.706982 -6.908162 8.154126
C -0.670261 -0.878502 4.572716
H -8.751916 -5.882415 10.507742
C -0.244685 -0.829604 3.247548
H -6.823737 -6.735366 11.790019
C -2.187838 0.120038 2.567716
C -2.711576 0.085295 3.857260
C -3.282533 -2.107008 6.725171
C -4.525694 -2.391202 6.181921
C -5.035120 -3.676877 6.281561
C -3.176838 -4.410892 7.380108
H -6.626786 6.595658 2.569657
C -2.605635 -3.147644 7.335807
H -8.819184 5.459617 2.773893
C -3.697077 0.796700 6.811114
H -11.727089 5.551530 5.088843
C -3.316064 2.081272 6.429849
H -13.484854 5.167334 3.612112
C -4.192339 3.132202 6.594264
H -13.366222 3.408124 2.084129
H -11.475455 2.060684 2.008298
C -4.947727 0.669125 7.394120
H -9.679652 2.468776 3.446128
C 0.431333 -3.059040 -0.037492
H -11.422544 2.972458 6.712178
C 1.322137 -4.070080 0.484201
H -10.953832 2.476129 9.087911
C 2.337684 -3.436066 1.106647
H -10.586909 4.060705 11.516649
C 2.102565 -2.020058 0.961831
H -11.733253 2.829074 13.143816
C 2.907414 -1.017106 1.524759
H -10.976230 0.748170 13.760753
C 4.078897 -1.464721 2.359919
H -9.099295 -0.145222 12.786092
C 3.870403 -1.908844 3.656735
H -7.972162 1.023908 11.091818
C 4.942029 -2.250024 4.470737
H -6.950459 3.568053 12.452834
C 5.377589 -1.413618 1.885842
C 2.667146 0.371879 1.475859
C 3.481643 1.368581 2.119849
C 2.904196 2.569696 1.875701
C 1.726841 2.322819 1.084888
C -0.791804 -3.305550 -0.682905
C -1.147152 -4.737367 -0.982329
C -2.295843 -5.319726 -0.454532
C -2.658704 -6.616798 -0.790698
C -1.870023 -7.358718 -1.655851
C 0.709396 6.804300 2.160676
C 0.350263 5.509985 1.824557
C -3.552487 -7.821590 9.313093
C -2.308573 -8.450825 9.659453
C -1.628908 -8.663879 8.508085
C -2.456710 -8.172697 7.435093
C -2.153884 -8.287956 6.063051
C -0.825737 -8.857263 5.681888
C 1.567820 -8.646048 5.446441
C 0.350139 -8.126189 5.852241
C -3.019917 -7.930783 5.009144
C -2.704301 -8.076740 3.610193
C -5.760329 1.780534 7.527074
C -3.761560 -7.610559 2.909895
C -4.733118 -7.146399 3.864209
C -5.953717 -6.534996 3.528197
C -6.227146 -6.282604 2.073323
C -5.462695 -5.369175 1.367972
C -5.712087 -5.116966 0.023401
C -5.830166 -6.980589 9.889318
C -4.568371 -7.484087 10.230136
C -4.264932 -7.647692 11.691486
C -4.822374 -8.683364 12.435660
C -4.548419 -8.800829 13.790951
C -3.712054 -7.889790 14.407614
C -3.155489 -6.873235 13.688780
C -3.435151 -6.755587 12.333338