149
Fe1 H68 C72 N8
N 1.900312 1.036923 0.744285
H -3.003388 2.047678 -3.901078
H -4.309013 1.801819 -3.007704
H -4.645022 3.018508 1.199797
H -5.002338 3.361030 -0.323595
H 1.797929 -5.897574 5.933611
H -6.207430 1.442486 0.417117
H -5.247316 1.060038 -0.803458
H -4.825271 0.685995 0.692707
H 1.013653 -5.992135 0.597202
H -2.340300 4.159548 2.756776
H -3.850610 5.124073 4.245589
H -1.220237 -6.488057 1.005916
H -5.662073 3.852749 5.034030
H -5.762940 1.570669 4.579942
H -4.129844 0.574623 3.259601
H -0.671801 1.286985 5.914578
H -1.762991 2.030868 5.012027
H 0.997046 -5.765188 -1.556864
H -0.043549 3.522835 5.600810
H 1.035257 2.573019 4.895886
H -0.067598 3.327408 4.012084
H 1.732566 -1.438482 4.892604
N 1.012454 -1.688545 -0.032274
H 1.616873 0.061891 5.419742
C 3.976890 0.200581 -3.773969
H 1.059661 -1.614997 7.106406
C 5.036117 0.021965 -2.679475
H -0.085440 -0.513883 6.919353
H -0.253214 -1.961722 6.261419
C 3.133934 3.913689 -2.305044
H -1.625652 -0.482362 -2.684750
N 0.752246 0.389703 -1.893002
H -3.627256 -1.360732 -3.399971
H -4.301313 -2.634158 0.344664
H -2.254539 -1.839843 0.953729
H 1.001007 2.625553 1.518592
H 2.809906 3.428274 2.739887
N -0.960655 1.711460 -0.140966
H 3.158646 -0.301645 0.102141
N -1.750865 -1.047629 -0.770852
N -6.511238 -2.985085 -2.266097
C 4.101323 1.976232 2.132596
C 4.196782 0.860408 1.335261
C 5.247674 2.446937 2.913122
C 0.245416 -1.011906 2.698148
C 0.719408 -2.274825 2.317739
C 0.845156 -2.646766 0.962439
C 0.853574 -3.945408 0.362948
C 1.102334 -3.798313 -0.959210
C 1.287336 -2.419819 -1.197190
C 1.827290 -1.734774 -2.309954
C 1.766257 -0.358382 -2.474510
C 2.643227 0.538900 -3.221631
C 2.101238 1.785008 -3.137591
C 0.858146 1.673636 -2.388548
C -0.192031 2.596134 -2.291966
C -1.198385 2.432228 -1.322706
H 4.933670 -4.653567 -3.905961
C -2.562928 2.930251 -1.305823
C -3.096619 2.598235 -0.098614
C -2.076451 1.932103 0.631138
C -2.063870 1.627406 2.027205
H 3.907861 -0.633660 -4.300744
C -1.113064 0.765847 2.585959
H 4.264149 0.923449 -4.387357
C -0.648798 0.656576 3.947460
H 5.866745 -0.314253 -3.079836
C 0.187685 -0.402511 4.014944
H 5.208207 0.883523 -2.245274
C 1.012564 -3.293986 3.364413
H 4.712884 -0.621052 -2.013481
C 0.051753 -3.739475 4.248426
H 3.591683 2.884021 -4.057399
C 0.322339 -4.708203 5.173862
C 1.598668 -5.246152 5.269354
H 3.576425 4.741625 -2.583767
C 2.570764 -4.825879 4.394121
C 2.303333 -3.876063 3.438743
H 3.738051 3.398855 -1.729211
C 0.473262 -5.265064 0.997156
C -1.030325 -5.555052 0.774790
C 0.998542 -4.882616 -2.004460
C -0.277770 -4.752331 -2.867690
C 2.512673 -2.550103 -3.368687
C 3.622214 -3.327607 -3.114802
C 4.158215 -4.138733 -4.095245
C 3.582836 -4.212281 -5.339458
C 2.458011 -3.470500 -5.589989
C 1.949337 -2.619448 -4.659178
N 6.148491 2.793662 3.527173
C 2.771089 3.083650 -3.540663
C -0.288148 3.741377 -3.205909
C -0.414236 3.495517 -4.590860
C -0.549779 4.563010 -5.473546
C -0.557510 5.849044 -5.008721
C -0.381469 6.118018 -3.653880
C -0.271386 5.067337 -2.770975
C -3.303849 3.560660 -2.489026
C -3.781467 2.476356 -3.486788
C -4.563435 2.699101 0.266312
C -5.274436 1.350026 0.130477
C -3.057162 2.276727 2.898000
C -3.012752 3.623700 3.162188
C -3.933227 4.209981 4.006838
C -4.987685 3.442983 4.504150
C -5.052985 2.093908 4.226890
C -4.091096 1.505527 3.438812
C -0.827915 1.705156 5.029046
C 0.106531 2.886122 4.871088
C 1.091581 -0.745033 5.188464
C 0.386604 -1.255664 6.490242
C -2.178666 -0.936257 -2.059074
C -3.366152 -1.448989 -2.490721
C -4.181456 -2.096209 -1.583846
H 5.014073 0.383399 1.253669
C -3.752590 -2.205480 -0.303507
C -2.545658 -1.707457 0.060889
C -5.463393 -2.569015 -1.997505
C 1.825743 2.154848 1.487421
C 2.899205 2.646567 2.207250
C 3.079931 0.459048 0.666821
Fe 0.094164 0.060630 -0.053742
H -0.820933 -3.363331 4.209959
H -0.366005 -5.012900 5.753288
H 3.442750 -5.197820 4.448618
H 2.981343 -3.611291 2.831497
H 0.666597 -5.235645 1.967500
H -1.563864 -4.962468 1.344191
H -1.257682 -5.397450 -0.165306
H 1.793346 -4.842690 -2.593460
H -0.247730 -5.407957 -3.595676
H -1.066773 -4.920440 -2.310638
H -0.327923 -3.848745 -3.241932
H 4.023339 -3.304492 -2.253272
H 3.957138 -4.767041 -6.012685
H 2.025635 -3.552453 -6.430702
H 1.208989 -2.068891 -4.881495
H 2.162023 3.602687 -4.121489
H 2.317266 4.132230 -1.807717
H -0.405835 2.604540 -4.919306
H -0.637857 4.394901 -6.402481
N -0.492051 -0.223895 1.818637
H -0.684441 6.567710 -5.617867
H -0.337113 7.015300 -3.342509
H -0.182929 5.250155 -1.840636
H -4.085332 4.069189 -2.155107
H -2.701676 4.195271 -2.954007
H -4.333714 2.892426 -4.180955