146
Fe1 H64 C65 N9 O7
C -2.510008 -2.998171 -2.290822
C 4.748839 1.995914 -1.280460
C 5.353854 3.247258 -1.329422
Fe 0.041546 1.619193 0.048285
C 6.639386 3.390268 -1.807004
H -3.965920 -0.469139 1.424044
C 7.330259 2.285699 -2.234942
C 6.770679 1.028710 -2.181176
H -1.350089 -0.958387 -3.603487
H 4.098723 -0.337419 -1.226819
C 5.476795 0.865000 -1.696303
C 5.101291 -1.553010 -2.211043
H 1.148814 -1.334731 3.581231
N 0.046023 -0.385967 -0.001741
H -1.323363 0.983548 4.914468
C 4.146830 -2.715913 -1.913353
N -0.943516 1.494624 1.773517
H -3.458121 1.367419 3.750899
C 3.920325 -3.502472 -3.203265
N -1.706216 1.600188 -0.919550
H -4.891316 1.683548 -1.302222
C 4.826679 -3.630429 -0.907525
N 1.017856 1.626156 -1.677774
H -3.681954 1.403172 -3.446722
C 2.787133 -2.258655 -1.378401
N 1.783896 1.571210 1.025589
C 1.337902 0.970376 4.733746
H 1.416077 1.495376 -4.852219
H 3.547494 1.770107 -3.658438
C 1.479217 2.050484 5.593217
N -4.742651 -0.537822 1.677432
H 4.970666 1.751290 1.436383
N -1.603988 -1.082580 -4.375693
C 1.712070 1.871720 6.947524
H 3.761304 1.356129 3.553695
N 4.834363 -0.378817 -1.592255
C 1.791246 0.603441 7.438872
H -4.857908 3.847526 1.168731
C 1.687348 -0.487957 6.605875
N 1.375987 -1.417526 4.362957
C 1.497258 -0.322365 5.239762
H -7.079527 4.037580 1.845532
C 1.760845 -2.708386 4.604425
H -8.232096 2.142688 2.535756
H -7.233203 0.040807 2.460458
C 1.498260 -3.713225 3.481487
C 0.025310 -3.701934 3.102467
H -5.526064 -4.275859 1.156603
C 1.882449 -5.100052 3.987002
H -4.994880 -3.387687 -0.063872
C 2.343477 -3.374515 2.261845
H -4.086188 -4.569407 0.518872
H -4.690869 -3.905160 3.445276
H -3.301105 -4.439569 2.863796
H -3.351216 -3.060268 3.673127
H -2.933619 -1.857849 0.375107
H -2.335619 -1.801397 1.859048
H -2.185284 -3.133655 0.986152
H -1.012670 3.251021 -5.105249
H -1.453653 3.070376 -7.402888
H -1.958111 1.002366 -8.297293
O -0.253645 -0.999973 -1.044883
H -2.115128 -0.875591 -6.967043
O 0.355045 -1.061129 1.006558
H -2.258781 -5.414300 -3.373340
H -3.337853 -4.633386 -4.258547
O -6.209588 -2.042634 2.506866
H -1.918022 -5.019138 -4.886283
O -2.515019 -2.642526 -5.741209
H 0.029653 -2.730967 -2.881790
O 6.062767 -1.689059 -2.948718
H -0.150749 -4.313493 -2.721154
O 2.277664 -3.048978 5.652935
H 0.176647 -3.686881 -4.156748
H -2.452547 -3.733924 -1.645507
H -2.075038 -2.204085 -1.919375
H -3.451440 -2.798709 -2.475537
H 4.877125 4.013118 -1.031774
H 8.211223 2.389193 -2.574557
H 7.265782 0.274140 -2.474256
H 3.494042 -2.922902 -3.868313
H 4.780242 -3.818601 -3.548561
H 3.340366 -4.270214 -3.019579
H 5.010756 -3.131773 -0.084329
H 4.239036 -4.386881 -0.704103
H 5.668889 -3.963494 -1.283822
H 2.371540 -1.648978 -2.022681
H 2.207841 -3.037687 -1.243713
H 2.912746 -1.793870 -0.525375
H 1.416077 2.933010 5.245033
H 1.813629 2.620645 7.522186
H 1.920534 0.469839 8.371491
H 1.746814 -1.362956 6.968262
H -0.514894 -3.923977 3.888777
H -0.220906 -2.811881 2.777054
H -0.137386 -4.364300 2.399651
H 1.345920 -5.318332 4.778413
H 1.713406 -5.762418 3.284769
H 2.832567 -5.109461 4.223391
H 2.077551 -2.497634 1.913772
H 3.290254 -3.351935 2.517572
H 2.207841 -4.055698 1.570141
O 0.168629 4.545268 -0.044251
C 0.081101 3.401559 0.030928
C -0.393624 1.258279 3.006584
C -2.294194 1.565000 1.964813
C -2.953663 1.694839 -0.388640
H 7.045291 4.250214 -1.839608
C -1.887955 1.484086 -2.272564
C 0.474979 1.516075 -2.924535
C 2.370203 1.740000 -1.856174
C 3.041366 1.726828 0.502460
C 1.974989 1.399408 2.374754
C -1.436949 1.160430 3.987749
C -2.595866 1.361774 3.355636
C -3.950218 1.632742 -1.420068
C -3.292753 1.487849 -2.583342
C 1.527993 1.559355 -3.912297
C 2.683568 1.704247 -3.266828
C 4.032241 1.662849 1.542293
C 3.374108 1.452097 2.691491
C -3.254668 1.724946 0.971672
C -0.884050 1.420107 -3.222383
C 3.321657 1.841613 -0.855953
C 0.962733 1.209355 3.300055
C -4.696882 1.834086 1.392665
C -5.336308 3.068494 1.429286
C -6.653577 3.188924 1.838276
C -7.335430 2.061774 2.233307
C -6.744446 0.812312 2.199225
C -5.414148 0.697527 1.773543
C -5.124836 -1.788225 2.017793
C -4.091199 -2.885268 1.742747
C -4.732629 -3.869408 0.748621
C -3.835963 -3.639838 3.049055
C -2.769252 -2.373440 1.191955
C -1.259554 1.284624 -4.669092
C -1.221803 2.404247 -5.481640
C -1.486059 2.302634 -6.844757
C -1.794413 1.079516 -7.364296
C -1.875594 -0.040107 -6.581205
C -1.603654 0.046452 -5.213355
C -2.018579 -2.350859 -4.674789
C -1.809112 -3.404623 -3.594286
C -2.383058 -4.736880 -4.071523
C -0.301084 -3.545752 -3.313637