62
H36 C18 N2 O6
C 2.287677 -1.055800 -2.667000
H -0.906108 -1.625961 3.414018
C 2.254269 -2.224348 -1.766765
H 0.486997 -2.190477 3.979524
H 1.041566 0.084523 4.344624
C 0.680762 -3.643165 -0.641006
C 2.087230 2.446081 -1.971660
H -0.224589 0.688555 3.566293
C -0.672254 -3.641283 -0.057459
H 1.679655 2.145006 3.533025
H 2.458057 1.042318 2.662339
H 2.628437 2.504415 0.749061
H 2.037119 3.605221 1.757555
C 1.997029 1.232372 -2.800747
H 0.182986 3.883715 0.296379
H 1.569409 4.340973 -0.355480
H 2.237565 3.232640 -2.556375
H 2.858950 2.367049 -1.357323
O -1.939412 1.704684 -1.089626
H 1.161834 1.245544 -3.335858
H 2.765409 1.181565 -3.420394
O -2.758571 -0.604187 0.317120
H 3.183006 -0.980531 -3.083511
O 0.697132 -0.774859 2.587308
O 0.964394 1.922963 1.691454
H 1.619521 -1.172466 -3.391427
O 1.999034 0.131566 -1.935569
H 2.521532 -3.039133 -2.256173
H 2.882336 -2.090746 -1.014193
O 0.950029 -2.365477 -1.276865
C -0.084277 3.085866 -2.079722
H -0.094299 2.481834 -2.864507
H 1.352259 -3.810638 0.069521
C -1.407225 3.119737 -1.474464
H 0.162941 3.992855 -2.390577
H 0.754259 -4.369509 -1.311109
H -2.041974 3.541242 -2.106801
C -3.090979 1.670813 -0.547935
H -1.327047 -3.454993 -0.774956
H -1.373818 3.682371 -0.659199
C -3.629512 0.274576 -0.495826
H -0.866019 -4.542627 0.302867
H -3.712364 2.242856 -1.061874
C -3.121046 -1.928918 0.324807
H -3.030844 2.033985 0.370908
C -2.285851 -2.675961 1.327534
H -4.540877 0.287748 -0.105031
C -0.027483 -2.988326 2.167932
H -3.695660 -0.086714 -1.414118
C 0.013942 -1.889402 3.162439
N 0.824416 2.647425 -1.170734
C 0.698802 0.347963 3.455236
H -2.987414 -2.316552 -0.576464
C 1.564064 1.413017 2.874554
H -4.079849 -2.013595 0.556831
N -0.838291 -2.683487 0.980271
C 1.793242 2.920275 1.086652
H -2.402778 -2.258219 2.216398
C 1.058270 3.556296 -0.036733
H -2.609906 -3.609294 1.384441
H 0.894572 -3.193434 1.881370
H -0.394969 -3.797466 2.603186