20
H14 C6
H -1.647891 1.026739 -1.197205
H 0.724305 0.026327 -1.181230
H -2.599056 2.145621 0.639355
H -3.704114 1.355822 -0.112408
H -3.113500 0.802963 1.222486
H 2.159911 0.315920 0.613569
H -0.191316 1.290005 0.554907
C -1.840009 0.552859 -0.390711
C -2.918958 1.276842 0.416497
C -0.514854 0.421226 0.366211
H 2.599056 -2.145621 -0.639355
H 3.704114 -1.355822 0.112408
H 3.113500 -0.802963 -1.222486
H -2.159911 -0.315920 -0.613569
H 1.647891 -1.026739 1.197205
H -0.724305 -0.026327 1.181230
H 0.191316 -1.290005 -0.554907
C 2.918958 -1.276842 -0.416497
C 0.514854 -0.421226 -0.366211
C 1.840009 -0.552859 0.390711