81
Fe1 H30 C46 Br1 N3
H 0.937880 0.159697 -4.605334
H 0.690079 -2.156019 -4.809927
H -2.035137 1.642334 -4.479459
Br 2.368886 -1.462861 -0.881569
C 3.704216 4.132674 1.999261
C 4.259550 5.308328 2.525784
C 3.518775 6.135846 3.326421
C 0.403632 -0.309674 -3.975848
H 1.411593 3.748946 -4.231558
C 0.245949 -1.683310 -4.114794
H 0.835837 4.895681 -6.181406
H -2.600314 2.822437 -6.413338
H -1.172298 4.458565 -7.257441
C -1.451799 2.316361 -4.807852
Fe 0.516981 -0.236266 0.070221
H -3.514094 -3.594165 0.895056
H -2.553224 -3.179294 3.114504
H 1.155766 -0.058305 5.186013
H 2.203489 2.031623 4.402535
H -1.568793 0.229769 -1.105476
H -0.723614 -3.284958 -3.315933
H -4.035465 -1.772290 -2.849767
H -2.438184 -5.082363 -1.163597
H -3.969565 -6.399273 -2.338965
H -5.643465 -3.074742 -3.905884
C -0.270963 2.599986 -4.124891
H -5.573268 -5.398243 -3.693380
C 0.586131 3.558750 -4.663739
H 0.323194 -3.841086 4.145861
H -1.619807 -0.508768 5.351395
C 0.244286 4.241675 -5.827893
H -0.145243 -4.836554 6.203776
C -1.784424 3.013745 -5.966162
H -2.067185 -1.502012 7.403640
C -0.936949 3.979183 -6.470838
H -1.333042 -3.679809 7.825207
H 1.726681 4.836732 -0.035421
H 0.644196 4.538647 -2.232445
C -1.954448 -2.329530 0.127542
C -2.757721 -3.052497 1.088063
C -2.242731 -2.820035 2.290510
C -1.116775 -1.916884 2.119978
C -0.359460 -1.434165 3.221230
C 0.486914 -0.340818 3.165908
C 1.140479 0.278709 4.297980
C 1.719685 1.407648 3.872876
C 1.460778 1.493292 2.439230
C 0.461033 2.464291 -1.715741
C 0.020692 1.840315 -2.863856
H 0.788964 4.382932 3.356275
C -1.006930 -0.287429 -2.010228
C -0.202027 0.397720 -2.937161
C -1.200119 -1.676636 -2.160068
H 1.712719 6.332715 4.218014
C -0.579535 -2.350663 -3.211815
C -2.068028 -2.414062 -1.227236
C -3.085773 -3.290519 -1.879040
C -4.036276 -2.713259 -2.719718
C -3.075198 -4.670828 -1.736107
C -3.994000 -5.453856 -2.424854
C -4.975820 -3.485164 -3.367298
C -4.941387 -4.859912 -3.230602
C -0.617418 -2.064814 4.548662
C -0.168121 -3.365040 4.804669
C -1.316650 -1.393011 5.520851
C -0.445141 -3.952311 6.028293
C -1.584977 -1.980282 6.739452
C -1.147521 -3.268274 6.990399
C 1.748558 2.597761 1.652755
C 1.316313 2.750140 0.311223
C 1.361598 4.028122 -0.377595
C 0.795844 3.861284 -1.584793
N -0.958946 -1.595442 0.817924
N 0.750273 0.394383 2.030615
N 0.769675 1.801387 -0.499927
C 2.400246 3.788987 2.280973
C 1.680323 4.617617 3.125433
C 2.229904 5.779924 3.643629
H 4.231276 3.568761 1.444682
H 5.159906 5.533004 2.323062
H 3.891464 6.944456 3.660057