131
Fe1 H62 C62 N6
Fe -0.071949 0.000000 -0.086720
H 4.293970 -6.123508 1.890273
H 2.828545 -4.735985 0.731934
H 0.656634 -5.512927 2.139479
C 0.014883 4.829430 2.425597
C -2.462836 4.828191 0.529002
C -1.804343 4.529272 -2.728908
H -0.829997 -5.258076 2.674724
C -2.356807 5.663537 -3.293982
C -3.720669 5.837331 -3.297542
H 0.375380 4.344859 3.198003
H 0.375380 -4.344859 3.198003
C -4.529834 4.867127 -2.752745
H -2.413728 -5.362494 1.350249
H -3.301019 4.320082 0.521249
H -3.301019 -4.320082 0.521249
H -2.434934 -5.422667 -0.249535
H -0.861247 4.413881 -2.724171
H -0.861247 -4.413881 -2.724171
H -1.793182 -6.323495 -3.679321
H -4.101255 -6.622592 -3.674269
H 3.324088 0.782252 -4.027255
H 3.324088 -0.782252 -4.027255
H -5.471813 -4.983757 -2.757999
H 3.231453 0.000000 -5.378642
H -4.558852 3.061754 -1.843952
H -4.558852 -3.061754 -1.843952
H -3.209500 1.037103 -5.166952
H -3.209500 -1.037103 -5.166952
H 1.185661 -2.040579 -4.461554
H 1.185661 2.040579 -4.461554
H -2.747439 2.350294 -4.378902
H -2.747439 -2.350294 -4.378902
H 1.089677 -1.313192 -5.884100
H 1.089677 1.313192 -5.884100
H -4.208400 1.743253 -4.137847
H -4.208400 -1.743253 -4.137847
H -0.129093 -1.215853 -4.851434
H -0.129093 1.215853 -4.851434
H 4.953579 5.578410 4.043803
C 3.753783 0.676241 1.412178
C 3.753783 -0.676241 1.412178
H 0.184528 -1.226471 4.533972
H 0.184528 1.226471 4.533972
C 2.393270 1.097099 1.184656
C 2.393270 -1.097099 1.184656
C 1.834109 2.363391 1.405396
C 1.834109 -2.363391 1.405396
H -1.169288 -2.045889 4.294791
H -1.169288 2.045889 4.294791
C 0.553954 2.703546 0.982367
C 0.553954 -2.703546 0.982367
H -3.326689 -0.782252 4.051778
H -3.326689 0.782252 4.051778
H -3.086730 0.000000 5.386190
C -0.222844 3.874092 1.308283
C -0.222844 -3.874092 1.308283
C 4.990410 1.512294 1.581652
C 4.990410 -1.512294 1.581652
C -1.298754 3.878163 0.476910
C -1.298754 -3.878163 0.476910
C 2.657783 3.327401 2.178348
C 2.657783 -3.327401 2.178348
C -1.191610 2.716466 -0.374007
C -1.191610 -2.716466 -0.374007
C -1.975105 2.397902 -1.489221
C -1.975105 -2.397902 -1.489221
C -2.090062 1.105948 -1.984820
C -2.090062 -1.105948 -1.984820
C -2.734046 0.671285 -3.213186
C -2.734046 -0.671285 -3.213186
C 3.972536 -5.327983 2.298771
C 3.110915 -4.499009 1.607568
C 0.014883 -4.829430 2.425597
C -2.462836 -4.828191 0.529002
C -2.620204 3.557475 -2.165324
C -2.620204 -3.557475 -2.165324
C -1.804343 -4.529272 -2.728908
C 0.821816 0.000000 -1.822133
C 1.455754 0.000000 -4.335850
C -2.356807 -5.663537 -3.293982
C 2.974752 0.000000 -4.456964
C 0.846370 -1.253018 -4.935840
C 0.846370 1.253018 -4.935840
C -3.720669 -5.837331 -3.297542
C -4.529834 -4.867127 -2.752745
C -3.987414 3.730738 -2.201548
C -3.987414 -3.730738 -2.201548
C -3.270885 1.524152 -4.320142
C -3.270885 -1.524152 -4.320142
N 1.612007 0.000000 0.923828
N 1.134321 0.000000 -2.917956
C -0.929329 0.000000 1.642946
C -1.441614 0.000000 4.178676
C -0.776425 1.256558 4.722855
C -0.776425 -1.256558 4.722855
C -2.931593 0.000000 4.440312
N -0.104539 1.959346 0.016498
N -0.104539 -1.959346 0.016498
N -1.670412 0.000000 -1.265501
N -1.231789 0.000000 2.752646
H 5.220324 1.566273 2.532930
H 5.220324 -1.566273 2.532930
C 4.362051 5.004994 3.569550
H 2.715819 2.226408 3.887944
H 2.715819 -2.226408 3.887944
H 4.170084 3.626320 5.047180
H 4.170084 -3.626320 5.047180
H 4.953579 -5.578410 4.043803
H 4.293970 6.123508 1.890273
H 2.828545 4.735985 0.731934
H 0.656634 5.512927 2.139479
H -0.829997 5.258076 2.674724
H -2.413728 5.362494 1.350249
H -2.434934 5.422667 -0.249535
H -0.918168 1.307882 5.692463
H -0.918168 -1.307882 5.692463
H -1.793182 6.323495 -3.679321
H -4.101255 6.622592 -3.674269
H -5.471813 4.983757 -2.757999
C 3.043950 3.016978 3.473490
C 3.043950 -3.016978 3.473490
C 3.899990 3.849138 4.164428
C 3.899990 -3.849138 4.164428
C 4.362051 -5.004994 3.569550
H 5.732609 1.102585 1.089287
H 5.732609 -1.102585 1.089287
H 4.826345 2.414007 1.234282
H 4.826345 -2.414007 1.234282
C 3.972536 5.327983 2.298771
C 3.110915 4.499009 1.607568