15
H8 C7
H -0.434866 2.018298 -0.438278
H -2.415063 0.834858 -0.316308
H -0.372257 -2.504133 0.454484
H -2.390869 -1.420796 0.156231
H 2.575645 1.102911 0.766598
C 0.808967 0.486722 -0.058532
H 1.898501 2.212942 -0.167457
C 0.795398 -0.865781 0.194097
H 2.643378 0.959430 -0.826648
C -0.406644 1.087340 -0.249765
C -1.588236 0.386619 -0.175762
C -0.388319 -1.572063 0.273382
C -1.575966 -0.938077 0.093046
C 2.092745 1.257515 -0.071786
H 1.618183 -1.324030 0.315605