170
Cu2 H71 C89 N8
C 1.269393 1.488368 -5.434698
C 1.651684 2.691091 -6.040864
C 1.339945 2.946149 -7.359466
C 0.640992 2.013425 -8.105276
C 0.245575 0.829911 -7.508029
C 0.560596 0.570584 -6.188014
C 2.585261 -3.448453 3.027507
C 3.666505 -4.332087 2.756962
C 2.654172 -4.366237 5.293603
C 1.656606 -3.836910 6.299412
C 1.200482 -3.821970 7.596731
C 0.175024 -2.910590 7.871681
Cu 0.967334 -0.795953 -0.613025
Cu -1.116397 0.910378 1.819873
C -0.345089 -2.067509 6.896648
C 0.130724 -2.054703 5.555918
H -3.032610 -2.181699 -0.362078
C 1.128290 -2.974621 5.312472
H 4.755952 0.949437 -1.428707
H -0.609247 -5.751449 2.436926
C 2.112730 -3.501813 4.312043
H -3.444434 -0.211666 -5.434875
H 0.924839 -5.429158 2.436500
C -0.325400 -1.092098 4.514260
H -3.987517 1.098843 -7.242626
C -1.595327 -1.243639 3.955309
H -3.014562 3.179864 -7.511170
C -2.610941 -2.219050 4.338270
H -1.537902 3.962114 -5.919461
H -1.017789 2.671881 -4.078700
C -3.721718 -1.904229 3.644576
H -4.609355 1.118053 -3.135720
C -3.396853 -0.808225 2.766309
H -6.888334 0.781888 -3.315013
C -4.289412 -0.219136 1.894255
H -7.767767 -1.349291 -3.019487
C -4.028535 0.804299 1.008256
H -6.355095 -3.114423 -2.526759
C -5.021179 1.465957 0.191374
H -4.092524 -2.796400 -2.442369
C -4.355041 2.393345 -0.551418
H -2.761889 -4.724813 2.241544
C -2.970262 2.279155 -0.211854
H -3.403416 -3.823037 1.130898
C -1.930037 2.976030 -0.800141
C -0.607606 2.944015 -0.419597
H -2.584690 -5.098329 0.728548
C 0.476919 3.718795 -1.012305
C 1.581132 3.502155 -0.261379
H 0.015873 -4.917974 3.607920
C 1.190638 2.582237 0.796181
H 5.482797 -0.778344 3.452861
C 1.994597 2.204452 1.832329
H 4.181695 -1.518974 3.919241
C 1.653325 1.367775 2.892693
H 5.308879 -2.309762 3.167585
C 6.334337 2.893857 -4.150853
C 2.503225 1.111650 4.024609
C 1.876464 0.194933 4.804780
C 6.639514 2.369867 -5.403661
H 4.903618 -5.719434 3.474196
C 0.609818 -0.122022 4.123859
H 4.079969 -5.738643 5.707818
H 5.820788 1.430739 0.826317
C -2.530546 -3.395094 5.271496
H 4.921666 2.950418 -2.735220
C -5.073682 -2.559484 3.715029
C -6.483072 1.169278 0.236768
C -4.958831 3.383697 -1.503028
H 5.952046 1.227973 -6.883807
C -5.498632 4.620570 -0.820450
H 3.925741 0.698647 -5.894127
C 0.366990 4.648317 -2.187853
H 2.119293 3.325002 -5.547241
H 1.600821 3.749743 -7.747845
C 2.942941 4.082707 -0.410939
H 0.440823 2.179907 -8.999978
C 3.807608 1.793584 4.256636
H -0.238441 0.204538 -7.999319
C 2.394936 -0.271429 6.131485
H 0.293157 -0.231943 -5.801235
N -0.523929 -0.747395 -1.783897
H 4.025825 -4.349162 1.898226
N 0.060173 -1.903162 0.656592
N 2.688627 -1.004588 0.175963
N 1.599180 0.484142 -1.879863
H 1.551599 -4.383312 8.248364
H -0.167889 -2.866835 8.733803
N -2.094110 -0.419768 2.956979
H -1.034197 -1.488025 7.131114
N -2.783219 1.320819 0.780153
N -0.128512 2.215124 0.655237
H -5.159001 -0.546764 1.905171
N 0.476919 0.667699 2.993168
H -2.146614 3.519230 -1.525001
H 2.862545 2.541684 1.831533
C 0.252138 6.102897 -1.769092
H -3.218013 -4.027937 5.050108
H -1.670801 -3.813432 5.186071
H -2.651960 -3.096281 6.175247
H -5.034305 -3.308651 4.312129
H -5.720131 -1.926640 4.035271
H -5.327996 -2.861499 2.840529
H -6.939196 1.703940 -0.416762
H -6.625816 0.238688 0.046011
H -6.824345 1.373111 1.109607
H -4.286130 3.650495 -2.147801
H -5.679113 2.953620 -1.990621
H -4.783273 5.076260 -0.369090
H -5.887486 5.204323 -1.476684
H -6.168052 4.366579 -0.180801
H 1.149620 4.540531 -2.750371
H -0.412359 4.406065 -2.711905
H 6.357307 0.449992 1.924443
H 6.616543 0.144775 0.407950
H 3.067637 4.779582 0.235555
H 3.600875 3.396503 -0.271310
H 6.941409 3.446661 -3.715469
H 3.041385 4.446618 -1.295571
H 7.453317 2.569431 -5.803432
H 4.163647 1.523585 5.107516
H 4.422883 1.552399 3.562425
H 3.676349 2.744450 4.253243
H 3.061074 0.343273 6.446851
H 1.671373 -0.311982 6.762738
H 2.783790 -1.143323 6.034345
C -0.487832 0.127700 -2.821612
H 0.982265 6.327007 -1.186153
C -1.798778 0.247226 -3.390254
H 0.280031 6.663172 -2.546617
C -2.633912 -0.578779 -2.620731
H -0.578073 6.238430 -1.307338
C -1.826671 -1.146524 -1.585622
C -2.143332 -1.936245 -0.478914
C -1.216318 -2.386599 0.469053
C -1.393517 -3.548769 1.300170
C -0.213830 -3.827306 1.906274
C 0.704981 -2.767586 1.537408
C 2.035616 -2.571223 1.950695
C 2.928175 -1.613954 1.391582
C 4.201384 -1.149726 1.920895
C 4.700167 -0.267160 0.974095
C 3.760026 -0.177516 -0.091057
C 3.914255 0.594062 -1.252371
C 2.903564 0.860860 -2.144230
C 2.946223 1.357103 -3.497385
C 1.668091 1.210898 -4.045772
C 0.851006 0.641019 -2.990866
C -2.172866 1.078567 -4.547761
C -3.060502 0.630347 -5.520448
C -3.382086 1.412597 -6.612046
C -2.806189 2.658008 -6.768801
C -1.925115 3.123303 -5.821001
C -1.610094 2.345321 -4.716295
C -4.095805 -0.792217 -2.757143
C -4.957190 0.262166 -3.024394
C -6.325562 0.065803 -3.127287
C -6.850597 -1.207354 -2.950883
C -6.002337 -2.264940 -2.669672
C -4.652014 -2.070711 -2.598858
C -2.650319 -4.373707 1.356843
C 0.053610 -5.096195 2.666309
C 4.852755 -1.467749 3.231885
C 5.991424 0.509754 1.038275
C 4.203024 1.746628 -4.179964
C 4.199743 -5.160226 3.709455
C 5.126757 2.586506 -3.564340
C 3.709164 -5.194376 5.050569
C 5.746955 1.566273 -6.043656
C 4.527890 1.248250 -5.447584