12
H6 C6
C 0.282189 0.015629 1.359387
H 0.471801 0.027064 2.272069
H -0.470991 -0.026683 -2.272091
C -1.034560 0.079667 0.923142
C -0.281379 -0.016391 -1.359409
H -1.727170 0.132271 1.542957
C -1.318978 0.063658 -0.436185
H -2.198566 0.105969 -0.729123
C 1.035370 -0.079286 -0.923164
H 1.727980 -0.133033 -1.542979
C 1.317154 -0.063276 0.436235
H 2.199376 -0.105588 0.729101