97
Zn1 H37 C52 N5 O2
N 1.043621 0.320032 1.785927
N 1.942203 -0.162149 -1.207071
N 0.949095 -0.986320 -0.650965
O 1.976297 -2.760784 -1.564765
O 0.704879 2.513531 -0.047860
H 1.415872 -0.518038 4.835914
C 6.579683 0.935372 2.602105
H -8.431803 0.763777 -1.979934
C 7.473729 0.149467 1.900787
C 7.046460 -0.639870 0.879822
H 0.063829 1.901452 5.358920
H -0.462941 1.911748 7.616258
H -1.981795 0.413723 8.444344
H -2.994365 -1.113472 7.059925
Zn -0.144246 0.553402 0.111036
H 1.247598 2.761143 0.650838
H -1.579402 -0.143960 -4.779290
H -3.660144 0.122012 -3.506107
H -4.871715 1.227084 1.610321
H -3.594297 1.069216 3.692846
H 3.484908 -0.691348 3.548770
H 4.734524 1.242527 -1.358929
H 3.473202 1.371223 -3.449050
H 2.643539 -0.868091 -4.811587
H 3.212744 -0.639870 -7.042061
H 2.005562 0.789516 -8.401334
H 0.276000 2.025000 -7.514371
H -0.215652 1.879145 -5.281366
H -4.761971 2.304700 -2.404816
H -7.024157 2.311564 -2.939771
H -7.612383 -0.790874 -0.521796
C 0.934463 3.390897 -1.134442
H -5.347272 -0.845784 0.000531
H -2.469058 -1.139211 4.806287
H 4.621854 1.427850 2.736792
H 5.407619 -1.218145 -0.147606
H -0.215652 -4.385789 -1.698828
H -1.910096 -5.643580 -0.686344
H -2.429550 -5.305538 1.435746
H -1.358451 -3.721716 2.621624
H 0.227713 -2.372979 1.597191
C 0.807160 0.345085 -3.356543
C -0.555126 0.331358 -2.976656
C -1.648174 0.077397 -3.878766
C -2.796826 0.221537 -3.174841
C -2.438330 0.556147 -1.828370
C -3.357251 0.712299 -0.769669
C -3.055821 0.782653 0.595653
C -3.964500 1.036613 1.685954
C -1.169691 0.387984 4.839912
C -3.260676 0.950816 2.833512
C -0.556589 1.295722 5.692397
C -1.908633 0.643661 2.489981
C -0.869725 1.299154 7.045324
C -0.838997 0.408575 3.383338
C -1.774014 0.405144 7.537309
C 0.502804 0.161479 3.034344
C -2.379800 -0.506026 6.715112
C 1.522689 -0.317271 3.935020
C -2.066664 -0.514606 5.365670
C 2.659635 -0.415081 3.222363
C 2.383081 -0.020412 1.876034
C 3.334193 0.067101 0.842219
H 6.878186 1.479328 3.295260
C 3.088367 0.221537 -0.538253
H 8.375091 0.161479 2.128877
C 3.879986 0.902769 -1.499814
H 7.656635 -1.158087 0.406711
C 3.177626 0.973123 -2.661527
C 1.922157 0.343369 -2.480315
C 1.143708 0.468634 -4.805266
C 2.170909 -0.274373 -5.348440
C 2.507457 -0.147392 -6.689128
C 1.791928 0.712299 -7.498666
C 0.766189 1.453589 -6.967904
C 0.461833 1.350632 -5.635436
C -4.817575 0.746618 -1.129853
C -5.328249 1.676663 -2.018316
C -6.689072 1.681810 -2.340864
C -7.526051 0.756913 -1.771657
C -7.035863 -0.169700 -0.904574
C -5.676503 -0.198871 -0.580069
C 4.779885 0.106568 1.230693
C 5.227640 0.904485 2.262584
C 5.697343 -0.670757 0.545098
C 1.092494 -2.259727 -0.873666
C 0.057976 -3.115986 -0.223125
H 1.348563 4.195677 -0.813759
C -0.489280 -4.171295 -0.836122
H 1.513910 2.965341 -1.772053
C -1.479901 -4.976076 -0.204236
H 0.098947 3.605390 -1.553437
C -1.778404 -4.780457 1.028049
C -1.163838 -3.838401 1.718269
C -0.220042 -3.011313 1.091529
N -1.069898 0.619123 -1.724229
N -1.803718 0.582230 1.125345