80
H29 Pd1 C46 N3 O1
H 4.071419 2.385132 -1.473172
H 5.022654 2.402657 0.642970
H -4.862048 0.283646 1.755310
H -5.018829 1.186160 -0.561526
H -1.652573 1.482618 -4.689913
H 0.864959 1.307372 -4.901547
H 5.863841 2.732703 -5.760534
H 2.357387 3.176658 -3.846300
H 5.991979 0.572801 -4.953850
H 3.986999 4.066030 -5.247040
H 4.335232 -0.285903 -3.514927
H 4.694018 -2.340657 1.687614
C 3.573943 -1.466766 3.093981
C 4.679395 -2.147011 2.577347
C 5.718668 -2.541460 3.416362
C 5.687915 -2.241936 4.764791
C 4.614422 -1.539055 5.285080
C 3.561129 -1.158918 4.457998
C -3.388765 -1.321896 3.384166
C -3.346253 -0.922920 4.722374
H -4.433917 -2.445805 2.031663
H -4.008801 3.289108 -2.251880
C -4.308342 -1.369651 5.619115
C -5.318219 -2.226748 5.206824
H -5.878106 3.817765 -3.577839
C -5.363595 -2.632879 3.887475
H -6.710248 2.174838 -5.142382
C -4.407536 -2.181184 2.974851
H -5.676100 0.168276 -5.275575
H -3.904783 -0.417337 -3.931071
Pd -0.182953 -0.240792 -0.097111
C 2.801498 0.789375 -1.178182
C 3.799013 1.712481 -0.839735
C 4.359503 1.733219 0.426984
C 3.936648 0.815808 1.372547
C 2.944711 -0.130226 1.085753
C -2.810486 -0.089189 1.331127
C -4.181561 0.354328 1.130193
C -4.265830 0.842679 -0.122623
C -2.940885 0.746586 -0.726530
C -2.647073 0.992076 -2.062145
C -1.352881 0.862686 -2.632689
C -1.021381 1.205876 -4.002869
C 0.314267 1.110367 -4.127952
C 0.861793 0.748631 -2.827473
C 2.190959 0.889411 -2.506063
C 2.384221 -0.169072 -0.218048
C 3.142947 1.377324 -3.558614
C 3.041643 2.666548 -4.095620
C 4.043982 3.171985 -4.914647
C 5.146118 2.384840 -5.229661
C 5.246820 1.099706 -4.724694
C 4.256842 0.597919 -3.888281
C -3.789459 1.372359 -2.960683
C -4.398189 2.627409 -2.861011
C -5.491582 2.936280 -3.666596
C -5.974284 2.009085 -4.580809
C -5.378217 0.761336 -4.679311
C -4.292966 0.440490 -3.864944
N 0.015179 -0.919854 1.787875
N -2.071960 0.262762 0.220043
N -0.231147 0.513217 -1.959057
O 1.538963 -1.135406 -0.547509
H 4.291514 0.829828 2.263455
H 1.351882 -2.597684 4.174441
H -1.105349 -2.428280 4.347809
H 6.399005 -3.038719 3.067362
H 6.427647 -2.534888 5.369260
H 4.599045 -1.331535 6.200911
H 2.868431 -0.632013 4.820848
H -2.621898 -0.350159 5.010957
H -4.237942 -1.102255 6.499508
H -5.929361 -2.558254 5.823931
H -6.030364 -3.232949 3.569288
C 2.496078 -1.019890 2.156954
C 1.190429 -1.372863 2.426940
C 0.782950 -2.136642 3.598357
C -0.556919 -2.049458 3.706959
C -1.021833 -1.251652 2.594871
C -2.369089 -0.849901 2.401531