151
Ni1 H50 C96 N4
Ni 0.000000 0.176143 0.000000
C 6.888975 3.067471 -4.914784
H -1.615519 -3.441618 -7.219447
C 2.614686 0.868230 -4.733193
H -2.335388 -4.473839 -9.170402
C 2.806930 1.165525 -5.876585
H -4.587070 -4.422136 -9.771696
C 0.303014 -0.897072 -4.707361
H -6.124464 -3.314206 -8.430838
C 1.091522 -2.021621 -4.964382
H -5.438077 -2.294910 -6.435927
C 1.339011 -2.431555 -6.254490
H -6.875024 -2.952282 -3.730555
H 6.875024 -2.952282 3.730555
C 0.779300 -1.720633 -7.321100
H -9.082063 -3.511787 -4.225585
C -0.020647 -0.616396 -7.078094
H -10.714324 -1.833273 -4.380219
C -0.266184 -0.212002 -5.775496
H -10.156286 0.356736 -3.964083
H 10.156286 0.356736 3.964083
H 7.988310 0.923627 3.322793
H -7.988310 0.923627 -3.322793
H 4.249457 2.844039 1.492903
N 1.309993 0.085293 1.400260
N -1.309993 0.085293 -1.400260
H -4.249457 2.844039 -1.492903
N 1.396768 0.269209 -1.308932
N -1.396768 0.269209 1.308932
H -6.448126 3.554960 -1.864517
H 6.448126 3.554960 1.864517
H 8.203154 2.424872 0.858008
H -8.203154 2.424872 -0.858008
H 7.806947 0.521079 -0.422890
H -7.806947 0.521079 0.422890
C -8.063645 3.638055 5.410299
H 5.613859 -0.187997 -0.808998
H -5.613859 -0.187997 0.808998
H 1.615519 -3.441618 7.219447
C -6.888975 3.067471 4.914784
H 7.455384 3.558653 -1.751642
H -7.455384 3.558653 1.751642
H 2.335388 -4.473839 9.170402
C -2.614686 0.868230 4.733193
H 9.422466 4.467156 -2.615395
H -9.422466 4.467156 2.615395
H 4.587070 -4.422136 9.771696
C -2.806930 1.165525 5.876585
H 9.801932 4.522553 -4.887699
H 6.124464 -3.314206 8.430838
C -0.303014 -0.897072 4.707361
H 8.214315 3.671293 -6.346429
H 5.438077 -2.294910 6.435927
C -1.091522 -2.021621 4.964382
H 6.255603 2.698161 -5.516961
C -1.339011 -2.431555 6.254490
H 1.462059 -2.509110 -4.238301
H -1.462059 -2.509110 4.238301
H 9.082063 -3.511787 4.225585
C -0.779300 -1.720633 7.321100
H 1.886167 -3.190487 -6.420470
H 10.714324 -1.833273 4.380219
C 0.020647 -0.616396 7.078094
H 0.948664 -1.995769 -8.214748
C 0.266184 -0.212002 5.775496
H -0.401787 -0.134447 -7.803875
H -0.825896 0.535851 -5.610953
C 1.093196 -0.448360 2.660829
C -1.093196 -0.448360 -2.660829
C 2.373613 -0.756734 3.284165
C -2.373613 -0.756734 -3.284165
C 3.340972 -0.248933 2.445049
C -3.340972 -0.248933 -2.445049
C 2.670210 0.268101 1.274050
C -2.670210 0.268101 -1.274050
C 3.301351 0.796215 0.141566
C -3.301351 0.796215 -0.141566
C 2.662677 0.810987 -1.087686
C -2.662677 0.810987 1.087686
C 3.277076 1.137826 -2.357687
C -3.277076 1.137826 2.357687
H -9.801932 4.522553 4.887699
C 2.424395 0.655877 -3.340759
C -2.424395 0.655877 3.340759
H -8.214315 3.671293 6.346429
C 1.275116 0.112991 -2.663170
C -1.275116 0.112991 2.663170
H -6.255603 2.698161 5.516961
C 0.145369 -0.439127 -3.301512
C -0.145369 -0.439127 3.301512
C -2.644820 -1.452883 -4.478988
H -1.886167 -3.190487 6.420470
C -3.022053 -2.041933 -5.461146
H -0.948664 -1.995769 8.214748
C -3.441418 -2.721463 -6.651786
H 0.401787 -0.134447 7.803875
C -2.532654 -3.404687 -7.464159
H 0.825896 0.535851 5.610953
C -2.962064 -4.023281 -8.616882
C -4.299122 -3.991890 -8.975185
C -5.210398 -3.340057 -8.177078
C -4.800519 -2.719617 -7.000507
C 4.746111 -0.405889 2.713619
C -4.746111 -0.405889 -2.713619
C 5.859396 -0.638555 3.051358
C -5.859396 -0.638555 -3.051358
C 7.215148 -0.969087 3.430638
C -7.215148 -0.969087 -3.430638
C 7.544391 -2.280138 3.740332
C -7.544391 -2.280138 -3.740332
C 8.847688 -2.606977 4.060163
C -8.847688 -2.606977 -4.060163
C 9.821463 -1.607993 4.143782
C -9.821463 -1.607993 -4.143782
C 9.494453 -0.320948 3.887787
C -9.494453 -0.320948 -3.887787
C 2.644820 -1.452883 4.478988
C 8.203154 0.018817 3.517440
C -8.203154 0.018817 -3.517440
C 3.022053 -2.041933 5.461146
C 4.704816 1.259699 0.302659
C -4.704816 1.259699 -0.302659
C 3.441418 -2.721463 6.651786
C 4.970721 2.369475 1.094415
C -4.970721 2.369475 -1.094415
C 2.532654 -3.404687 7.464159
C 6.276808 2.797875 1.313811
C -6.276808 2.797875 -1.313811
C 2.962064 -4.023281 8.616882
C 7.312526 2.120191 0.729032
C -7.312526 2.120191 -0.729032
C 4.299122 -3.991890 8.975185
C 7.077592 0.999335 -0.043887
C -7.077592 0.999335 0.043887
C 5.210398 -3.340057 8.177078
C 5.776806 0.574629 -0.265224
C -5.776806 0.574629 0.265224
C 4.800519 -2.719617 7.000507
C 4.467371 1.859827 -2.652930
C -4.467371 1.859827 2.652930
C 5.427196 2.439644 -3.061736
C -5.427196 2.439644 3.061736
C 6.643718 3.036080 -3.562016
C -6.643718 3.036080 3.562016
C 7.602706 3.569733 -2.691261
C -7.602706 3.569733 2.691261
C 8.770957 4.112618 -3.208099
C -8.770957 4.112618 3.208099
C 8.997800 4.145856 -4.549595
C -8.997800 4.145856 4.549595
C 8.063645 3.638055 -5.410299