91
Fe1 H34 C48 N7 O1
Fe 0.032021 0.122929 0.318453
H -1.359129 -4.609170 1.673521
H 1.122751 -4.699893 1.635993
H 4.968263 -1.325493 0.236852
H 5.061158 1.108914 -0.205792
H 1.455772 4.992373 -0.459831
H -1.006828 5.083096 -0.502171
H -4.889147 1.423926 -0.267377
H -4.961009 -0.992841 0.242626
H 3.911361 -3.039154 2.874434
H 5.807825 -6.264869 1.348274
H 4.701846 -5.964978 -0.674418
H 3.185726 -4.200915 -0.933268
H 4.109420 3.452598 1.661974
H 5.616777 5.226741 1.574407
H 6.084758 6.282659 -0.462718
H 5.082191 5.498911 -2.431523
H 3.516994 3.757529 -2.337220
H -2.724513 4.168304 -2.362239
H -4.428176 5.715639 -2.782751
H -6.049461 6.141534 -1.179609
H -5.968835 5.045295 0.892158
H -4.270430 3.497960 1.327104
H -6.398256 -5.609646 1.391576
H -5.641072 -5.022465 -0.736965
H -3.914623 -3.480169 -0.987155
H -2.016406 0.045436 -2.345881
H -1.527392 -0.995361 -4.523498
H 1.683628 -1.300292 -2.185181
H 1.881688 -1.612783 -5.007519
H 0.493518 -2.167203 -5.579108
H 1.294520 -3.001352 -4.472497
C -1.148449 -2.586798 1.013404
C 1.036516 -2.657864 0.975875
C 2.844468 -1.083312 0.395627
C 2.917207 1.075649 -0.035470
C 1.231772 2.858361 -0.280849
C -0.965288 2.944800 -0.291434
C -2.763774 1.277760 -0.017187
C -2.828976 -0.872380 0.440853
C -0.770383 -3.904049 1.429105
C 0.579577 -3.955206 1.408897
C 4.228081 -0.732263 0.198361
C 4.278735 0.592548 -0.050867
C 0.861593 4.252727 -0.403057
C -0.475748 4.301364 -0.420378
C -4.145109 0.868498 -0.072037
C -4.184721 -0.447745 0.207022
C 2.386652 -2.348649 0.766101
C 2.554915 2.406761 -0.226962
C -2.314898 2.585939 -0.256792
C -2.469840 -2.169471 0.818063
C 3.390271 -3.443376 0.946045
C 4.068231 -3.634651 2.150807
C 4.961427 -4.674440 2.310544
C 5.194717 -5.546643 1.246273
C 4.538316 -5.369229 0.048247
C 3.636005 -4.319863 -0.105716
C 3.633376 3.445794 -0.316453
C 4.285045 3.879753 0.832497
C 5.190861 4.931387 0.779572
C 5.476908 5.552589 -0.431926
C 4.867130 5.097713 -1.597234
C 3.940982 4.054900 -1.541423
C -3.339549 3.643369 -0.483888
C -3.387224 4.332866 -1.701160
C -4.399782 5.260007 -1.950388
C -5.356252 5.516048 -0.998703
C -5.312784 4.860824 0.230116
C -4.303732 3.936203 0.484156
C -3.570035 -3.176751 0.999932
C -3.992620 -3.579209 2.267242
C -5.032346 -4.480897 2.417356
C -5.669642 -5.006840 1.292462
C -5.231106 -4.643947 0.031889
C -4.198217 -3.730918 -0.116301
C -1.191917 -0.357778 -2.588373
C -0.932161 -0.930090 -3.786399
C 0.812692 -1.083060 -2.494070
C 1.063158 -2.101680 -4.784273
N -0.023891 -1.826738 0.752629
N 2.046445 0.032836 0.197399
N 0.107564 2.072597 -0.200018
N -1.961545 0.188326 0.273418
N 0.017298 0.454195 2.037259
N -0.088567 -0.445477 -1.775254
N 0.346287 -1.392527 -3.730587
O -0.581613 0.097602 2.990869
H 5.413459 -4.795656 3.137134
H -3.560570 -3.230681 3.038020
H -5.311557 -4.742735 3.287248