188
P1 H101 C82 N4
P -6.491172 -1.920224 -6.304192
H -3.947950 2.428667 3.082370
H 5.493828 6.249471 -1.215353
H 2.966272 -3.226841 -0.571442
C 1.328583 -5.106451 -1.510938
H 5.376850 4.698311 -0.835369
C 1.627294 -4.854981 -2.972142
H -5.865550 -0.270786 1.784571
C 2.619517 -5.976332 -3.443908
C 4.558005 2.546704 2.315606
H 3.540717 5.987736 0.911981
H -5.414350 -1.798851 1.634428
C 2.742761 -6.159802 -4.831772
H 4.184094 7.331048 0.328623
H -5.422706 -0.836594 0.356366
C 3.661872 -7.429982 -5.131248
C 6.661517 3.197190 3.322425
C 5.028005 -7.152852 -4.739703
H -1.278350 -5.732560 -1.703919
C 6.632272 4.340352 2.546228
H -2.414706 -4.621473 -1.889415
C 5.385205 -2.091377 -0.769763
C 5.623339 4.634161 1.641032
H -2.272661 -5.395128 -0.493891
C 5.151250 -1.833492 -2.265463
C 4.572628 3.691149 1.545351
C 6.084983 -2.622544 -3.179823
H 6.761783 0.098721 0.047827
C 5.594094 5.909473 0.803796
C 5.834317 -2.156811 -4.659687
C 7.804139 2.907229 4.284045
H 6.051561 1.530560 0.122986
C 6.845339 -2.643072 -5.599778
C 6.726272 -2.074698 -6.989679
C 8.470494 1.545956 3.786769
H -6.153817 1.933425 5.933039
H 0.843961 -5.966068 -1.429003
C -0.672572 2.971380 6.284798
H 2.185028 -5.200111 -1.023413
H 2.036717 -3.960723 -3.089630
H 0.793828 -4.889622 -3.503985
H 3.517739 -5.767201 -3.080598
H 2.331250 -6.833382 -3.043790
C 0.455428 2.730174 7.292528
H 3.145917 -5.352789 -5.239845
H 6.962317 1.725577 5.778569
H 1.846628 -6.294518 -5.231396
C -3.617906 -2.804731 -0.349638
H 3.321383 -8.212618 -4.627884
C -3.962572 -2.400583 -1.632561
H 3.628450 -7.645528 -6.095620
H 7.877250 1.111015 3.137906
C -5.123995 -2.872731 -2.236835
H -1.015150 4.050391 4.546612
H 5.587828 -7.934205 -4.930359
H 0.319650 4.503294 5.299750
H 5.057250 -6.955268 -3.780389
C -5.917772 -3.775970 -1.560886
C -5.568928 -4.230155 -0.300650
H -1.389061 3.492282 6.724153
H 5.362228 -6.380480 -5.242330
C -4.411684 -3.732347 0.309663
H 5.195117 -3.040805 -0.567077
C 4.276005 6.626675 1.003121
C -5.474928 -2.419828 -3.577286
H 6.333561 -1.915605 -0.551071
C 6.726272 6.901240 1.267233
C -4.699950 3.502546 5.470823
H 4.215428 -2.068283 -2.488403
C -5.834217 -2.077264 -4.675373
C -2.044972 0.597811 2.467482
C -5.341239 4.677783 6.109426
H 5.270317 -0.867386 -2.445929
C -5.368395 -0.737802 -7.127296
C -3.482128 0.555472 2.400578
C -4.094172 -0.424747 -6.636163
C -4.263372 5.715738 6.559826
H 5.903250 -3.592499 -3.094648
C -3.241906 0.357889 -7.371702
H 7.027072 -2.457035 -2.927100
C 7.275650 2.651910 5.708445
C -3.632528 0.874942 -8.565988
H 4.944450 -2.477563 -4.951842
H 1.328583 2.568515 9.903355
C -4.902572 0.605510 -9.065936
H 5.821783 -1.167610 -4.685958
C -5.777817 -0.201504 -8.347117
H 6.778494 -3.629706 -5.655734
C -8.008750 -0.936668 -6.006784
H 7.743561 -2.423677 -5.244791
C -9.080350 -1.129120 -6.851899
H 7.432317 -2.446771 -7.555434
C -10.296084 -0.438861 -6.656282
H 7.346672 4.960045 2.634274
H 6.816094 -1.099611 -6.950296
C -10.392172 0.434869 -5.585128
H 3.862405 3.847676 0.935208
H 5.848939 -2.305640 -7.360994
C -9.333106 0.638868 -4.755187
C -8.144528 -0.043694 -4.933740
C 3.588761 0.447699 1.347479
C 3.421650 1.579314 2.174502
C 2.199650 1.880821 2.825874
C 0.039739 1.792294 3.282296
C -1.326395 1.529277 3.215368
N 0.048094 -2.113189 0.292345
H 8.608361 0.950639 4.552973
C -4.397061 1.545956 3.074121
H 9.333205 1.739690 3.363521
C -4.804395 1.207241 4.487055
C -5.715150 2.277272 5.115714
H -3.398572 -1.797568 -2.101158
H -6.717817 -4.092873 -1.966256
H -1.861150 2.079688 3.774861
H 4.255117 7.025692 1.896191
H -6.107861 -4.871660 0.145579
H -4.169372 -4.030006 1.177345
H -3.820528 -0.755764 -5.788812
H 6.880850 6.793467 2.231236
H -2.368750 0.540076 -7.044289
H 6.450539 7.823724 1.083232
H -3.035106 1.422787 -9.063485
C 8.917517 3.931071 4.291899
H 7.553472 6.703656 0.781570
H -5.174128 0.973733 -9.899660
H 0.756228 3.600055 7.656699
H -6.646795 -0.386257 -8.683345
H -6.410750 2.569798 4.473333
H -9.000972 -1.737267 -7.577051
H -3.993906 3.161265 6.075908
H 6.519472 0.796678 1.466334
H -11.029284 -0.569728 -7.247077
H -4.261283 3.800204 4.636852
H -11.206839 0.896753 -5.428330
H -5.863461 4.381408 6.897729
H -9.412484 1.261128 -4.041134
H -5.965817 5.103743 5.469795
H -7.421772 0.091023 -4.330619
H -4.706217 6.484261 6.975339
H -5.215906 1.635767 2.526687
H -3.755772 6.017246 5.776016
H -3.655506 5.298760 7.204196
C 0.012583 1.826935 8.446058
H -3.991817 1.107166 5.043549
C 1.146850 1.685804 9.491895
H -5.280661 0.338643 4.487547
C 0.768761 0.685056 10.585098
H 6.532005 3.262623 5.895737
H 7.994228 2.803306 6.356448
C 5.604539 2.301649 3.210834
C 5.838494 5.539966 -0.631604
C 1.923917 2.927758 3.798840
C 0.601650 2.871305 4.081891
C -3.820528 -0.487615 1.610780
C -2.581817 -1.104743 1.140561
C -2.395906 -2.202999 0.289132
C -1.136306 -2.723901 -0.047592
C -0.837595 -3.973553 -0.773554
H -1.054839 2.097650 6.016213
C 0.524361 -4.040270 -0.858732
C 2.909872 3.901562 4.443160
H 1.222050 2.311913 6.827859
C 1.069561 -2.886844 -0.179251
C 2.410628 -2.575072 -0.159317
H -0.225550 0.933960 8.093943
H 9.585961 3.689866 3.616810
C 3.102050 -1.478099 0.353154
H -0.789550 2.211838 8.878833
H 9.337383 3.951600 5.174778
C 4.501605 -1.209950 0.080439
H 1.976139 1.383014 9.042056
H 8.547783 4.815065 4.082879
C 4.806583 -0.011618 0.668854
H 1.499872 0.618340 11.234403
N -1.531106 -0.397804 1.695421
H 0.610005 -0.193806 10.182035
H -0.043817 0.989130 11.038522
N 2.598628 -0.460672 1.106230
H 5.592005 1.516447 3.745011
N 1.038228 1.181581 2.585615
C -5.257684 -0.884065 1.321916
C -1.781772 -5.020489 -1.256315
C 6.151828 0.661962 0.568993
H 2.427339 4.495596 5.057553
C -0.217195 3.716809 5.027138
H 3.346450 4.434011 3.748159
H 3.586672 3.397339 4.943477
H 6.799383 5.429627 -0.780619