120
C120
C -3.057297 4.060878 -6.237492
C -0.208693 0.327973 -0.692662
C -0.729457 3.874233 -7.032256
C 0.686660 -0.106918 -1.865197
C 1.610037 0.929847 -2.212462
C 1.220111 2.140813 -1.490896
C 0.964274 4.402677 -5.490945
C 0.052175 1.846021 -0.706268
C -0.327729 4.828351 -5.995663
C -1.664565 0.072661 -1.045439
C -2.682291 4.958926 -5.246662
C -2.664531 1.077473 -0.968995
C -1.266348 5.352494 -5.134860
C -0.965539 5.482454 -3.732320
C -3.727934 0.777458 -1.916767
C -3.340252 -0.412002 -2.627591
C -2.171004 5.188891 -2.960960
C -2.035681 -0.808182 -2.100007
C -3.227519 4.878430 -3.903987
C 0.286113 -0.979619 -2.851640
C -1.104607 -1.404832 -2.960787
C -4.143199 3.865476 -3.599851
C -1.409305 -1.517894 -4.360121
C -0.208879 -1.217418 -5.122137
C 0.837356 -0.884529 -4.188958
C 2.177316 1.052280 -3.487212
C 1.775382 0.105996 -4.504460
C 1.682005 0.808028 -5.765121
C 2.029468 2.189049 -5.531392
C 2.336705 2.351883 -4.102569
C 1.412615 3.389723 -2.091084
C 1.972615 3.473291 -3.433063
C -0.945096 2.784931 -0.612116
C -3.035331 3.449480 -1.429185
C -2.358339 2.427463 -0.688160
C -2.061803 3.506626 -7.131144
C 0.208693 -0.327973 0.692662
C -0.686660 0.106918 1.865197
C -4.017665 3.025650 -5.912723
C -1.610037 -0.929847 2.212462
C -3.626335 1.822671 -6.621246
C -1.220111 -2.140813 1.490896
C -2.421111 2.119614 -7.379270
C -0.052175 -1.846021 0.706268
C 1.664565 -0.072661 1.045439
C 0.304016 2.868038 -7.152097
C 2.664531 -1.077473 0.968995
C 1.363308 3.190635 -6.210375
C 3.727934 -0.777458 1.916767
C 3.340252 0.412002 2.627591
C 2.035681 0.808182 2.100007
C -0.286113 0.979619 2.851640
C 1.104607 1.404832 2.960787
C 1.409305 1.517894 4.360121
C 0.208879 1.217418 5.122137
C -0.837356 0.884529 4.188958
C -4.550485 2.920575 -4.639861
C -2.177316 -1.052280 3.487212
C -1.775382 -0.105996 4.504460
C -4.065638 3.163905 -2.343725
C -1.682005 -0.808028 5.765121
C -4.406904 1.786725 -2.587217
C -2.029468 -2.189049 5.531392
C -4.719443 1.631571 -4.001784
C -2.336705 -2.351883 4.102569
C -3.787608 0.589891 -6.013953
C -1.412615 -3.389723 2.091084
C -4.342113 0.489118 -4.677867
C -1.972615 -3.473291 3.433063
C -3.623774 -0.559936 -3.971319
C -1.267563 -4.540932 4.143502
C -2.664588 -1.128013 -4.881687
C -0.288382 -5.089808 3.240977
C -2.735336 -0.412617 -6.130637
C -0.381413 -4.377944 1.969649
C -1.434292 1.147523 -7.487414
C 0.945096 -2.784931 0.612116
C -1.596293 -0.143325 -6.868407
C 0.776095 -4.079466 1.251414
C -0.292865 -0.548414 -6.339807
C 2.078131 -4.491007 1.764557
C 0.665091 0.486967 -6.673042
C 3.035331 -3.449480 1.429185
C -0.031198 1.543856 -7.387241
C 2.358339 -2.427463 0.688160
C 2.061803 -3.506626 7.131144
C 3.057297 -4.060878 6.237492
C 4.017665 -3.025650 5.912723
C 3.626335 -1.822671 6.621246
C 2.421111 -2.119614 7.379270
C 0.729457 -3.874233 7.032256
C -0.304016 -2.868038 7.152097
C -1.363308 -3.190635 6.210375
C -0.964274 -4.402677 5.490945
C 0.327729 -4.828351 5.995663
C 2.682291 -4.958926 5.246662
C 1.266348 -5.352494 5.134860
C 0.965539 -5.482454 3.732320
C 2.171004 -5.188891 2.960960
C 3.227519 -4.878430 3.903987
C 4.550485 -2.920575 4.639861
C 4.143199 -3.865476 3.599851
C 4.065638 -3.163905 2.343725
C 4.406904 -1.786725 2.587217
C 4.719443 -1.631571 4.001784
C 3.787608 -0.589891 6.013953
C 4.342113 -0.489118 4.677867
C 3.623774 0.559936 3.971319
C 2.664588 1.128013 4.881687
C 2.735336 0.412617 6.130637
C 1.434292 -1.147523 7.487414
C 1.596293 0.143325 6.868407
C 0.292865 0.548414 6.339807
C -0.665091 -0.486967 6.673042
C 0.031198 -1.543856 7.387241
C 1.267563 4.540932 -4.143502
C 0.288382 5.089808 -3.240977
C 0.381413 4.377944 -1.969649
C -0.776095 4.079466 -1.251414
C -2.078131 4.491007 -1.764557