184
Fe2 H90 C74 N8 Cl2 O8
C 4.497150 -2.252616 0.304283
O -0.084160 -2.539095 2.958530
C 4.207983 -2.050638 -1.093703
Fe -3.647149 1.608668 -2.992916
C 3.181725 -1.236543 -1.175885
O 0.442011 -4.509411 4.293345
C 2.851734 -0.844953 0.210594
O 2.318760 -2.965722 3.434777
C 1.882175 0.080436 0.654492
H 9.337010 -4.202322 1.628310
C 0.618913 2.967897 1.450080
C 1.641769 3.633600 0.515668
H -3.032528 1.195437 3.356333
C 5.016517 -2.627718 -2.219912
C 6.245759 -1.762098 -2.517732
C 2.653286 -0.622365 -2.458593
C 2.965133 0.865677 -2.621002
C 0.682416 0.395769 -0.245488
C -1.790811 -0.556413 -1.800033
C -1.080935 -1.727061 -2.196340
C -1.303196 -1.918734 -3.506011
C -2.186573 -0.855258 -3.948201
C -2.567593 -0.634731 -5.260482
C -2.778514 0.958422 -0.080320
C -1.785141 0.082497 -0.538389
C -0.376729 -2.722524 -1.305529
C -1.351958 -3.443874 -0.418678
C -0.890425 -3.093504 -4.375031
C -1.907612 -4.216749 -4.306394
C -1.791945 0.329817 -8.610840
H -6.443562 3.126594 -6.023664
H -6.004709 3.633600 0.082657
C -2.611818 0.715224 2.599877
Cl 1.009004 -3.600510 3.213295
C -2.888511 -0.735720 2.738902
C -0.588784 -0.150396 0.360659
H -3.746940 -0.189555 -9.071752
H -3.064279 -1.207689 -8.042948
N 3.721503 -1.475619 1.052657
N -2.518831 -0.074139 -2.871822
H -6.456036 2.067240 -8.119512
H -5.403696 1.362378 -9.101529
H -5.278957 3.590319 -9.597593
Cl -1.109285 3.262620 -4.038311
H -3.962397 3.295596 -8.735578
H -5.226794 4.002519 -8.052167
H -8.223923 5.793528 -4.195952
H 9.166911 -5.100918 0.316180
H -7.636517 4.985616 -5.455207
O 1.082714 -4.268274 1.856121
H -9.899957 4.653795 -5.285604
H -9.712849 4.093203 -3.798796
O -2.309043 2.978202 -3.300225
H -9.122041 3.277047 -5.042335
O -0.239516 2.052813 -4.216344
H -8.888440 4.979433 -1.685421
O -0.159003 4.321974 -3.464933
H -8.001661 4.482732 -0.445442
O -1.332680 3.509940 -5.541471
H -7.724968 6.628233 -0.241479
Fe 3.606857 -1.638026 3.140373
H -6.492324 6.306717 -1.211038
H -4.431868 2.774163 3.161057
H 2.231443 1.286121 6.075908
H -5.344728 3.565587 2.114499
H 6.142566 -3.394410 6.222869
H -6.753141 2.275401 3.351769
H -5.847085 0.974910 3.135387
H -6.677164 1.584966 1.909962
H 0.976119 2.871030 5.448001
H -3.856937 -0.882051 2.770146
H 0.253769 3.567648 4.200850
H 1.877639 5.004165 5.051982
H 2.308554 4.552806 3.578342
H 3.003689 3.882981 4.854993
C 9.086398 -4.286823 5.040763
H 2.935649 1.137729 8.205618
H 3.655731 0.134022 9.223981
H 1.363942 -0.028797 9.605110
H 1.813002 -1.401423 8.915066
H 1.074776 -0.276117 8.050413
H 6.419259 -2.258799 8.248221
H 5.554027 -1.351959 9.269692
H 5.281870 -3.662340 9.551395
H 4.582199 -3.674706 8.111369
H 3.924487 -2.846184 9.312424
H 8.054470 -5.886159 4.294211
H 7.341191 -5.218395 5.560363
H 8.024986 -5.952111 2.081343
H -7.854243 6.892041 -1.814446
C -3.455505 0.257682 -5.735947
C -3.828587 0.472026 -7.118987
C -4.761859 1.411842 -7.142173
C -4.992058 1.826103 -5.773188
C -5.898114 2.739126 -5.349831
C -6.123778 3.169875 -4.083584
C -7.144367 4.066410 -3.610797
C -7.055916 4.181826 -2.278171
C -5.949144 3.299718 -1.876271
C -5.547712 3.130716 -0.580571
C -4.540731 2.298072 -0.149350
C -4.190329 2.122887 1.235852
C -3.119845 1.306731 1.303544
H 5.946387 -3.575778 0.046553
H 0.218615 3.658332 2.034723
H -0.107973 2.572185 0.904419
H 1.191576 4.311669 -0.030048
C -3.165204 -0.249324 -8.273643
H 2.038665 2.955531 -0.071385
H 2.345976 4.056105 1.048707
C -5.493281 1.980678 -8.333166
C -4.942163 3.336816 -8.712864
C -8.062897 4.890810 -4.567741
C -9.296675 4.171521 -4.683145
C -7.969910 4.948518 -1.316880
C -7.469821 6.304656 -1.131030
C -5.010202 2.669052 2.365359
C 8.705378 -4.507350 0.944654
C -6.171405 1.801371 2.720265
H -2.480276 -1.067541 3.566336
N -3.698178 1.551990 -0.940986
N -5.422974 2.691723 -2.932028
C 1.458063 2.042508 3.679361
N -4.140433 1.110936 -4.931170
C 2.233711 0.941934 4.073790
C 2.584113 0.688431 5.426467
C 3.374503 -0.321459 5.890973
C 3.716967 -0.506949 7.287797
H 7.066766 -5.579070 0.854308
C 4.619621 -1.487985 7.320333
C 4.856624 -1.926978 5.944343
C 5.692373 -2.905953 5.544096
H 8.348172 -3.732414 0.459412
C 5.953190 -3.266628 4.221941
H 4.454059 -2.689548 -3.031463
H 5.310219 -3.542802 -1.980240
C 6.922750 -4.276518 3.816481
C 6.843371 -4.311555 2.458744
H 6.689148 -2.091858 -3.326616
C 5.878347 -3.382044 2.053313
H 6.868318 -1.807440 -1.763135
H 5.965664 -0.832587 -2.654621
H 1.672387 -0.746025 -2.488919
H 3.039976 -1.112883 -3.227331
H 2.508136 1.209864 -3.415476
H 3.932424 0.987276 -2.720069
H 2.654420 1.352073 -1.828977
H 0.601903 1.374744 -0.359709
H 0.824164 -0.008187 -1.139016
H -2.146883 -1.187079 -5.910494
C 1.108795 3.182241 4.517490
C 2.166806 4.247778 4.499959
C 3.062656 0.183486 8.432127
H 0.107484 -3.379983 -1.865201
C 1.706407 -0.436875 8.781378
H 0.288922 -2.248494 -0.745605
C 5.504131 -2.015601 8.538500
H -0.865477 -4.060113 0.167045
C 4.769307 -3.130602 8.904808
H -1.984723 -3.948819 -0.970575
C 7.823136 -5.022600 4.717201
H -1.840707 -2.792598 0.126939
H -0.798572 -2.790537 -5.313773
C 7.655306 -5.199846 1.553750
H -0.009317 -3.429447 -4.074404
H -1.587827 -4.981380 -4.830806
H -2.762639 -3.905538 -4.671821
H -2.030083 -4.490862 -3.373087
H -1.349690 -0.241080 -9.273180
H -1.245363 0.371037 -7.798218
H -1.898540 1.232535 -8.976637
H -1.634321 0.861555 2.655882
H -2.509759 -1.215933 1.972917
H -0.747542 0.286536 1.234741
H -0.484457 -1.121127 0.518366
C 1.890113 0.669882 1.946818
C 1.232400 1.883811 2.314056
N 2.552362 0.127839 3.061688
N 4.059431 -1.189140 5.090632
N 5.320425 -2.743134 3.136343
H 9.609167 -4.804134 5.688668
H 8.866405 -3.412959 5.423495
H 9.611435 -4.163163 4.223210
C 5.478050 -3.107931 0.727864