77
H29 C44 N4
H -4.295419 2.505495 -1.447136
H -0.981359 1.200308 4.941386
H 1.118394 -0.100656 5.059325
H 1.005608 -1.207320 -4.725347
H -3.477564 0.285128 4.375770
H 1.729502 -2.868724 4.601521
H 3.591557 -0.256941 -4.386873
H -4.366311 2.592790 1.024473
H -5.336811 2.061985 -6.529629
H -6.027022 0.786365 -4.688261
H -4.585407 0.406213 -2.917695
H -4.381918 4.877924 4.248453
H -2.934206 3.917689 2.676446
H 0.506759 0.756797 -1.219623
H -1.076103 -0.011954 -4.777596
C -2.436142 1.448674 -1.223693
C -3.647126 2.147730 -0.852409
C -3.686817 2.198417 0.490075
H -1.707611 2.580118 -4.797623
C -2.475538 1.526253 0.967720
H -3.176929 2.968717 -6.576610
C -2.147918 1.370813 2.342072
C -1.012822 0.696959 2.842730
C -0.553514 0.751870 4.221892
C 0.588555 0.047462 4.284791
C 0.859783 -0.445327 2.947240
C 2.029042 -1.126784 2.575731
C 2.452827 -1.412461 1.239544
C 2.589795 -1.508203 -0.949432
C 2.314163 -1.307990 -2.295360
C 1.185154 -0.527552 -2.750681
C 0.624094 -0.701014 -4.018412
C 0.331182 0.334829 -2.060541
C -0.784377 0.613044 -2.855128
H 4.316319 -2.480124 1.531196
C -2.039646 1.198759 -2.541231
H 4.458815 -2.585722 -0.939373
C -3.059051 2.000175 3.352143
C -3.649886 1.218611 4.350110
C 2.575557 -2.441264 4.669746
H 5.232070 -2.373119 6.552588
H 5.897286 -0.787745 4.954502
H 4.489984 -0.278060 3.172285
C 2.960417 -1.514257 3.690031
C 3.126207 -1.968891 -3.361197
H 4.756217 -1.283350 -6.123143
H 5.000226 -3.600868 -6.176896
H 4.036454 -4.908871 -4.495137
H 2.878360 -3.892318 -2.738034
C -2.980286 1.457262 -3.659883
C -2.585491 2.216580 -4.770143
C -3.458371 2.446783 -5.834162
C -4.740232 1.911473 -5.804895
C -4.189978 3.947819 4.280610
C -5.149903 1.150888 -4.708541
C -3.335210 3.368862 3.339629
C -4.292272 0.925472 -3.656208
N -1.736211 1.072042 -0.083926
N -0.133307 -0.048279 2.091693
N 1.798651 -1.059765 0.103025
N -0.542754 -0.036453 -4.077741
H -4.867989 1.242547 5.978520
C 3.687938 -2.125316 0.912741
C 3.766415 -2.181916 -0.429299
C 3.407208 -2.744400 5.733295
C 4.652542 -2.147139 5.835422
C 5.051587 -1.213937 4.880947
H -5.328120 3.529089 5.917360
C 4.209487 -0.911083 3.822479
C 3.687081 -1.201688 -4.396067
C 4.376989 -1.813732 -5.432769
C 4.518499 -3.189178 -5.469656
C 3.952616 -3.963138 -4.468008
C 3.262638 -3.355036 -3.420860
C -4.482129 1.785460 5.301378
H 3.122092 -3.364329 6.395149
C -4.753638 3.144854 5.265228