129
Cu1 H52 C72 N4
Cu 0.000000 0.256501 0.000000
H 1.394675 -1.397727 5.170081
H -1.394675 -1.397727 -5.170081
H -2.357417 -1.186406 -7.279316
H -3.585563 0.702593 -7.824571
H -3.884793 2.393158 -6.253731
C 1.904928 -0.624216 5.382093
H 2.968888 2.166375 4.119531
H -2.968888 2.166375 -4.119531
C 2.473726 -0.497037 6.636290
H 3.655817 -2.880836 2.898612
H -3.655817 -2.880836 -2.898612
C 3.204109 0.620127 6.958775
H -5.040084 -3.996712 -4.402303
C 3.384168 1.617457 6.029740
H -6.648123 -2.824141 -5.578020
C 2.829680 1.484351 4.766982
H -6.814651 -0.527962 -5.324979
H -5.453802 0.595645 -3.798160
H 4.873555 -2.498140 -0.612847
H -4.873555 -2.498140 0.612847
C 5.131934 -3.059943 4.279919
H 6.999393 -3.336980 -1.040099
H -6.999393 -3.336980 1.040099
C 6.068656 -2.369286 4.979038
H 8.880643 -2.218527 -0.249329
H -8.880643 -2.218527 0.249329
C 6.175859 -1.013742 4.815655
H 8.630851 -0.238041 0.933354
H -8.630851 -0.238041 -0.933354
C 5.360390 -0.343701 3.911362
H 6.505012 0.639455 1.329853
H -6.505012 0.639455 -1.329853
H -4.675803 -0.896485 3.105395
H 4.675803 -0.896485 -3.105395
H -6.832865 -0.411994 3.843413
H 6.832865 -0.411994 -3.843413
H -7.891881 1.538856 3.162141
H 7.891881 1.538856 -3.162141
H -6.832865 2.989752 1.695448
H 6.832865 2.989752 -1.695448
H -4.717435 2.458873 0.861604
H 4.717435 2.458873 -0.861604
H -3.759897 1.287591 4.645829
H 3.759897 1.287591 -4.645829
H -3.666225 2.525877 3.635466
H 3.666225 2.525877 -3.635466
H -2.815369 2.533609 4.989654
H 2.815369 2.533609 -4.989654
H -1.126668 2.148335 5.840213
H 1.126668 2.148335 -5.840213
H 0.317445 2.500107 5.247493
H -0.317445 2.500107 -5.247493
H -0.054642 1.072404 -5.923118
C -1.996518 0.723468 2.220666
C 1.996518 0.723468 -2.220666
C -2.023059 1.303440 3.552531
C 2.023059 1.303440 -3.552531
N -0.707225 0.381103 1.879360
N 0.707225 0.381103 -1.879360
C -0.756663 1.227545 4.038405
C 0.756663 1.227545 -4.038405
N 1.855230 0.164628 0.690249
N -1.855230 0.164628 -0.690249
C 0.062708 0.620771 3.003861
C -0.062708 0.620771 -3.003861
C 1.418093 0.283560 3.096688
C -1.418093 0.283560 -3.096688
C 2.227837 -0.037286 2.001972
C -2.227837 -0.037286 -2.001972
H 2.357417 -1.186406 7.279316
C 3.630578 -0.430162 2.057991
C -3.630578 -0.430162 -2.057991
H 3.585563 0.702593 7.824571
C 4.102841 -0.372178 0.780973
C -4.102841 -0.372178 -0.780973
H 3.884793 2.393158 6.253731
C 3.001933 0.049432 -0.062236
C -3.001933 0.049432 0.062236
C -3.104973 0.460090 1.398367
C 3.104973 0.460090 -1.398367
C 2.076140 0.369119 4.437219
C -2.076140 0.369119 -4.437219
H 5.040084 -3.996712 4.402303
C -1.904928 -0.624216 -5.382093
H 6.648123 -2.824141 5.578020
C -2.473726 -0.497037 -6.636290
H 6.814651 -0.527962 5.324979
C -3.204109 0.620127 -6.958775
H 5.453802 0.595645 3.798160
C -3.384168 1.617457 -6.029740
C -2.829680 1.484351 -4.766982
C 4.414822 -1.033457 3.175114
C -4.414822 -1.033457 -3.175114
C 4.308400 -2.388614 3.382121
C -4.308400 -2.388614 -3.382121
C -5.131934 -3.059943 -4.279919
C -6.068656 -2.369286 -4.979038
C -6.175859 -1.013742 -4.815655
C -5.360390 -0.343701 -3.911362
C 5.466812 -0.842753 0.400795
C -5.466812 -0.842753 -0.400795
C 5.634902 -2.026148 -0.299388
C -5.634902 -2.026148 0.299388
C 6.900517 -2.530353 -0.547893
C -6.900517 -2.530353 0.547893
C 8.014436 -1.868044 -0.085673
C -8.014436 -1.868044 0.085673
C 7.863519 -0.696761 0.612375
C -7.863519 -0.696761 -0.612375
C 6.597644 -0.176191 0.852252
C -6.597644 -0.176191 -0.852252
C -4.479091 0.736224 1.915679
C 4.479091 0.736224 -1.915679
C -5.116062 -0.110475 2.803308
C 5.116062 -0.110475 -2.803308
H 0.054642 1.072404 5.923118
C -6.391825 0.183312 3.251162
C 6.391825 0.183312 -3.251162
C -7.022811 1.335267 2.840501
C 7.022811 1.335267 -2.840501
C -6.400412 2.189569 1.969838
C 6.400412 2.189569 -1.969838
C -5.136618 1.881479 1.489201
C 5.136618 1.881479 -1.489201
C -3.165599 1.970517 4.267996
C 3.165599 1.970517 -4.267996
C -0.341123 1.786256 5.380272
C 0.341123 1.786256 -5.380272