83
Re1 H27 C48 N4 O3
Re -0.882735 0.199927 -0.864810
H 4.537864 -1.944070 -3.123458
H 5.327221 -3.503908 -4.696672
H 3.982398 -5.236822 -5.412451
H 1.715950 -5.361523 -4.728029
H 0.919939 -3.885536 -3.088015
C 1.773113 -2.354724 -0.660225
H -0.673005 5.054237 -2.320253
H -0.146109 7.125779 -3.394170
H 2.093125 7.686933 -3.888251
C 1.429622 1.802335 -2.214538
C 2.307247 1.610984 -3.386529
C 2.545280 0.266148 -3.446826
C 1.907116 -0.360582 -2.318092
C 2.042573 -1.759169 -1.943617
C -0.667096 3.860977 1.539622
C 0.019086 4.264105 0.406131
C 0.252593 3.095571 -0.408469
C 0.957700 3.020320 -1.647127
C -0.838270 2.407565 1.409371
C 2.873324 5.893819 -3.270985
C 2.635140 4.694109 -2.664229
C 2.637329 -2.723452 -2.944250
C 3.965328 -2.637451 -3.431073
C 4.439578 -3.575933 -4.367538
C 3.635560 -4.590742 -4.808927
C 2.286483 -4.688568 -4.373185
C 1.804506 -3.790935 -3.422785
C 1.298032 4.339356 -2.328642
C 0.220319 5.262788 -2.568376
C 0.547776 6.509799 -3.191584
C 1.878150 6.839826 -3.514835
N 1.152029 0.551025 -1.657767
O -1.421393 -2.446099 -2.440623
H 2.844718 -4.179013 -0.837744
H -1.071884 -2.069846 4.987306
H 1.154721 -2.922328 5.454275
H 1.347687 -4.720818 6.979996
H 0.901109 -6.878360 6.251012
C -1.715681 1.280956 -2.353960
H 0.545078 -7.352439 3.937180
C -1.202741 -1.482891 -1.873211
H 0.464547 -5.533524 2.419524
C -2.701001 -0.042380 -0.091336
N -0.320190 2.003362 0.237487
O -2.177252 1.937786 -3.138443
O -3.734665 -0.156331 0.320769
H -2.337409 0.014596 4.553074
H -5.672120 2.574192 3.935474
C 2.350568 -3.620009 -0.250324
H -4.910207 4.025453 5.584407
C 1.273061 -2.930928 1.513200
H -2.615062 4.366231 5.897510
C 0.663560 -2.902978 2.817334
H -1.105407 3.255747 4.531933
C -0.140738 -1.803244 3.081254
C -0.993658 -1.529117 4.211052
H -4.099544 1.562608 2.410306
C 1.028133 -1.907520 0.532360
C 0.073877 -0.857236 0.770950
C 0.804322 -4.054312 3.774071
C 1.047646 -3.814585 5.147277
C 1.134377 -4.884219 6.068664
C 0.903073 -6.165630 5.621807
C 0.667043 -6.460182 4.238136
C 0.623145 -5.367973 3.340951
C -1.677694 -0.358432 3.978304
C -1.232138 0.227447 2.708857
C -1.466234 1.579808 2.454965
C -4.741624 2.737593 4.030248
C -4.285138 3.581475 5.024780
C -2.925039 3.785726 5.211393
C -2.036415 3.136421 4.390511
C -2.466959 2.294689 3.341072
N 2.128087 -3.924236 1.012420
N -0.362917 -0.752960 2.115595
C -3.794813 2.102263 3.130240
H 2.636617 2.280714 -3.973356
H 3.045143 -0.179981 -4.120162
H 3.762710 6.094845 -3.540096
H 3.353131 4.102854 -2.468587
H -0.963496 4.411382 2.255652
H 0.287136 5.150988 0.200132