117
Co1 H44 C68 N4
H 3.983243 2.324571 3.025246
C -5.234191 0.837883 5.591855
H 3.983243 2.324571 -3.025246
C -4.995026 1.835141 -4.698834
H 4.834170 -2.397993 1.942596
C -4.995026 1.835141 4.698834
H 4.834170 -2.397993 -1.942596
C -4.114416 1.645012 -3.644848
H 6.796108 -3.055472 2.959097
C 5.234190 0.837883 -5.591855
C -4.114416 1.645012 3.644848
H 6.796108 -3.055472 -2.959097
H -4.704128 -1.011890 -6.105617
C -5.395047 -0.534727 -1.484399
H 8.568637 -1.601904 3.100216
C -5.395047 -0.534727 1.484399
H 8.568637 -1.601904 -3.100216
H -5.857544 0.959320 -6.270992
C -5.542899 -1.796940 -2.002131
H 8.362266 0.520183 2.257910
C -5.542899 -1.796940 2.002131
H 8.362266 0.520183 -2.257910
C -6.721758 -2.195598 -2.610708
H 6.391847 1.207102 1.283304
C -6.721758 -2.195598 2.610708
H 6.391847 1.207102 -1.283304
C -7.774250 -1.333270 -2.701113
N -0.000000 0.261362 1.962441
C 1.092918 0.397519 2.788651
N -0.000000 0.261362 -1.962441
C -7.774250 -1.333270 2.701113
N 2.000951 0.175497 -0.000000
C 1.092918 0.397519 -2.788651
C -7.646187 -0.072284 -2.200580
C 0.671412 0.664927 4.132372
C -7.646187 -0.072284 2.200580
C 0.671412 0.664927 -4.132372
C -6.467611 0.337414 -1.605233
C 4.196399 -0.169188 0.679357
C -6.467611 0.337414 1.605233
C 4.196399 -0.169188 -0.679357
C 2.836046 0.077366 1.103156
C 2.836046 0.077366 -1.103156
C 2.426697 0.278535 2.415346
C 2.426697 0.278535 -2.415346
C 3.433957 0.452718 3.516077
C 3.433957 0.452718 -3.516077
C 3.652201 -0.533501 4.454080
C 3.652201 -0.533501 -4.454080
H -1.224091 0.810897 -4.866413
C 4.557689 -0.337238 5.483810
H -1.224091 0.810897 4.866413
C 4.557689 -0.337238 -5.483810
H -3.188856 -1.336950 -4.394545
C 5.234190 0.837883 5.591855
H -3.188856 -1.336950 4.394545
C 4.995026 1.835141 4.698834
H -4.704128 -1.011890 6.105617
C 4.995026 1.835141 -4.698834
C 4.114416 1.645012 3.644848
H -5.857544 0.959320 6.270992
C 4.114416 1.645012 -3.644848
H -5.425013 2.653310 -4.795853
C 5.395047 -0.534727 1.484399
H 4.704128 -1.011890 -6.105617
H -5.425013 2.653310 4.795853
C 5.395047 -0.534727 -1.484399
H -3.983243 2.324571 -3.025246
C 5.542899 -1.796940 2.002131
H 5.857544 0.959320 -6.270992
H -3.983243 2.324571 3.025246
C 5.542899 -1.796940 -2.002131
H -4.834170 -2.397993 -1.942596
C 6.721758 -2.195598 2.610708
H -4.834170 -2.397993 1.942596
C 6.721758 -2.195598 -2.610708
C -5.234191 0.837883 -5.591855
H -6.796108 -3.055472 -2.959097
C 7.774250 -1.333270 2.701113
H -6.796108 -3.055472 2.959097
C 7.774250 -1.333270 -2.701113
H -8.568637 -1.601904 -3.100216
C 7.646187 -0.072284 2.200580
H -8.568637 -1.601904 3.100216
C 7.646187 -0.072284 -2.200580
H -8.362266 0.520183 -2.257910
C 6.467611 0.337414 1.605233
H -8.362266 0.520183 2.257910
C 6.467611 0.337414 -1.605233
H -6.391847 1.207102 -1.283304
H -6.391847 1.207102 1.283304
C -1.092918 0.397519 -2.788651
C -1.092918 0.397519 2.788651
N -2.000951 0.175497 -0.000000
C -0.671413 0.664927 -4.132372
C -0.671413 0.664927 4.132372
C -4.196399 -0.169188 -0.679357
C -4.196399 -0.169188 0.679357
Co -0.000000 0.219656 -0.000000
C -2.836046 0.077366 -1.103156
H 1.224091 0.810897 4.866413
C -2.836046 0.077366 1.103156
H 1.224091 0.810897 -4.866413
C -2.426697 0.278535 -2.415346
H 3.188856 -1.336950 4.394545
C -2.426697 0.278535 2.415346
H 3.188856 -1.336950 -4.394545
C -3.433957 0.452718 -3.516077
H 4.704128 -1.011890 6.105617
C -3.433957 0.452718 3.516077
C -3.652201 -0.533501 -4.454080
H 5.857544 0.959320 6.270992
C -3.652201 -0.533501 4.454080
C -4.557689 -0.337238 -5.483810
H 5.425013 2.653310 4.795853
C -4.557689 -0.337238 5.483810
H 5.425013 2.653310 -4.795853