12
H6 C6
C 0.467294 0.391688 1.216630
H 0.474580 1.285713 -1.849706
H -1.249287 -1.923536 -0.218762
H -0.775697 -0.684402 -2.077514
H 1.219209 1.954193 0.220726
C -0.275878 -0.755054 1.095670
H 0.800993 0.655276 2.065366
C 0.279315 0.758537 -1.085642
C -0.731981 -1.132773 -0.136106
H -0.471143 -1.282230 1.861750
C -0.463857 -0.409945 -1.222730
C 0.725219 1.147126 0.132022