94
Yb1 H38 C48 N4 Cl1 O2
Yb -0.075894 -0.269156 -0.577509
H -2.292028 -4.179355 2.291687
H -5.076940 0.215220 1.105545
H -4.443070 2.555999 0.596603
H 0.126750 5.126364 -0.286021
C 2.590151 -1.633945 0.918081
C 3.002053 1.688564 -0.321017
H 2.491752 4.440102 -0.555726
C 1.856737 -2.710005 1.450158
C 0.459704 -2.795101 1.525043
C -0.263412 -3.916329 2.067881
H -3.984257 -3.715192 0.060968
H -6.004863 -4.808221 0.435951
H -7.389310 -4.134436 2.184484
H -6.708529 -2.425019 3.600915
H -4.729112 -1.274593 3.185701
H -1.901865 5.046508 1.781911
H -4.338950 5.922429 -2.085018
H -3.183337 3.918542 -1.852085
C 4.222883 2.420993 -0.769777
H 0.199977 -0.179069 -4.200721
C 6.460882 3.827207 -1.683685
H 1.365888 0.921447 -4.317405
C 2.583286 -4.021640 3.452329
C 5.392226 3.604359 -2.518188
H 0.256042 2.311440 -2.822930
H -0.751973 1.937115 -4.013248
C 4.299543 2.883742 -2.084566
H 1.804105 -1.733765 -3.447125
H -2.864113 1.495412 -3.203524
H -3.033451 0.335004 -2.113694
H -2.361822 0.010589 -3.529641
H 5.209159 0.000607 0.196829
C -1.576921 -3.627850 1.998875
H 4.647371 -2.170478 1.230170
H -3.041460 7.082836 1.510661
C -1.691338 -2.321705 1.395354
H -4.186775 7.542008 -0.455687
C -2.900727 -1.610737 1.249027
C -2.997981 -0.256928 0.885394
C -4.201649 0.532398 0.918041
C -3.857254 1.809845 0.630562
C -2.447635 1.826814 0.385201
N 2.042093 -0.484268 0.379728
C -1.691338 2.966759 0.105873
H 3.547822 -4.538707 0.395760
C -0.297737 3.024904 -0.070201
H 4.728607 -6.245629 1.422368
C 0.465425 4.237966 -0.263991
H 4.640506 -6.530116 3.702477
C 1.752618 3.860896 -0.408151
H 3.306402 -5.137627 4.991522
C 1.807538 2.434968 -0.302423
C -4.161603 -2.354396 1.555675
C -4.548333 -3.426463 0.768765
C -5.746281 -4.086273 0.997278
H 5.270944 2.391296 0.973711
C -6.559786 -3.696725 2.037681
C -6.166191 -2.672323 2.860858
H 7.145097 3.521758 0.191499
C -4.983118 -1.994794 2.618052
H 7.226333 4.295363 -1.998181
C -2.428184 4.266165 -0.013662
C -2.386994 5.216701 0.982418
C -3.064343 6.434006 0.817292
C -3.758855 6.703520 -0.338042
C -3.826361 5.762717 -1.300936
C -3.149012 4.557889 -1.149887
C 0.690827 0.527158 -3.709329
C 3.106172 0.351225 0.080292
C -0.248538 1.570526 -3.243268
C 4.335012 -0.329797 0.364100
C 2.261774 -1.042512 -2.922213
C 4.030662 -1.522396 0.910533
C -2.459077 0.685622 -2.826214
N -0.431605 -1.836330 1.086415
N -1.932758 0.543628 0.530531
N 0.536364 1.936367 -0.093816
Cl -1.008268 -2.214648 -2.037065
O 1.328130 -0.026594 -2.554501
O -1.168452 1.004547 -2.286525
H 0.117597 -4.715888 2.412572
C 2.650792 -3.816010 2.074167
C 3.475739 -4.658990 1.335401
C 4.189702 -5.665925 1.948284
H 5.408245 3.948488 -3.403958
H 3.589012 2.700738 -2.687761
C 4.133638 -5.841358 3.288819
H 2.018065 -3.475624 3.984684
C 3.339583 -5.020838 4.050017
H 2.642783 -1.446783 -2.114379
H 2.980313 -0.648223 -3.460137
C 5.298404 2.684018 0.071430
C 6.410539 3.368784 -0.390821