147
Fe1 H70 C70 N6
Fe -0.074635 0.119989 0.034266
C 2.566461 4.607886 -1.880006
C 4.629733 2.728455 1.015567
H -4.575528 -0.799475 3.528374
C -2.339751 -1.742744 3.867873
H -5.594260 0.094054 2.741617
C -2.095256 -1.215153 5.136366
H -3.399232 1.055086 4.196923
C -2.711928 -1.721427 6.257133
H -4.906956 1.282466 4.561458
C -3.563588 -2.767726 6.120057
C 0.353776 0.552365 -2.834514
H -4.291642 1.982367 3.300880
C -3.814875 -3.305976 4.883570
C -3.203636 -2.808584 3.752640
C 1.554521 1.243385 -2.685678
H -5.789857 0.710465 -0.680430
C 2.099203 1.495634 -1.400007
C -0.453060 2.263038 1.990395
H -6.119926 0.877446 0.847257
C 3.180417 2.367846 -1.062871
C 3.564819 2.051647 0.210376
C 2.699576 0.991136 0.646066
C 2.824540 0.179321 1.772940
H -2.008324 -1.312855 -5.481249
C 1.804450 -0.671574 2.176258
H -3.255252 -0.836780 -4.656146
C 1.894098 -1.794259 3.054965
H -1.623922 -3.002211 -3.898769
C 0.599630 -2.174409 3.306285
H -3.043355 -3.163864 -4.541810
C -0.351187 -3.947256 -0.978485
H -2.899375 -2.542124 -3.112421
C 2.441497 2.867014 -5.962792
C -0.616057 -2.643378 -0.637787
H 0.015557 -0.811910 -5.910687
N -1.945842 -0.280233 0.456716
N -0.567158 0.488592 -1.821747
N -0.448985 1.979347 0.672517
C 0.613213 -0.534792 -5.197354
C 1.505622 -1.685899 -4.813208
C 6.041016 2.437126 0.533031
C 3.120651 -2.542124 3.414349
C 3.658542 -3.320187 2.211031
C 0.222020 -3.442758 3.975306
H -0.590249 3.710804 3.368131
H -0.550858 -3.293541 4.541079
H -0.837461 5.421478 1.860079
H -0.921677 4.934744 -0.403549
H -0.845611 -4.219045 2.395878
H -0.652731 2.769312 -1.101958
C 2.296158 1.660839 -3.877752
H -0.329454 -5.331072 3.373098
C 1.746043 2.540157 -4.799416
H -4.977588 -1.639712 -1.847222
H -6.873787 -1.648594 -3.179554
C 3.706083 2.328765 -6.170899
C 4.262989 1.458329 -5.268934
H -7.248681 0.047868 -4.688019
C 3.570252 1.143906 -4.126268
H -5.781707 1.792292 -4.787726
C 4.120367 0.115371 2.529954
H 3.877230 3.293350 -2.717995
H -3.861058 1.804727 -3.504841
C 5.251839 -0.440642 1.961715
H 4.423270 3.927525 -1.390704
C 6.390102 -0.655587 2.737439
H 1.784075 4.243724 -2.298141
H 2.884306 5.357527 -2.389287
C 6.440359 -0.264779 4.035710
C 5.344204 0.335644 4.605724
H 2.349132 4.895663 -0.990398
C 4.166550 0.516837 3.867800
H 4.480319 3.685935 0.988381
H 6.672630 2.870567 1.111470
H 6.146964 2.767536 -0.361327
H -1.501675 -0.504593 5.225246
H -2.547573 -1.351936 7.093793
H -3.981947 -3.124783 6.870094
H -4.407098 -4.020088 4.806197
H -3.374783 -3.186957 2.922064
H -0.353903 1.568466 2.600368
C 1.597987 -2.083812 -0.845599
C 1.938923 -3.357491 -1.207672
C 0.935132 -4.297207 -1.265865
H 1.155178 0.198862 -5.527997
H 2.097845 -1.410557 -4.110562
H -1.034416 -4.576102 -1.011829
H 2.019063 -1.961241 -5.576676
H -1.493525 -2.396459 -0.455708
H 0.966373 -2.419552 -4.507989
H 0.909324 2.913201 -4.640487
N 1.752834 0.753809 -0.314944
H 2.065245 3.440792 -6.591463
N 0.482815 -0.454321 1.809619
N 0.337476 -1.726578 -0.560810
C -2.432116 -0.520580 1.705912
C -3.831175 -0.120890 1.773058
H 4.549593 2.442455 1.940589
C -4.184335 0.293011 0.521261
C -3.021623 0.101160 -0.328477
H 6.194505 1.490304 0.545517
C -2.961857 0.086948 -1.719390
C -1.740737 0.031880 -2.386370
C -1.492166 -0.385574 -3.745740
H 2.923697 -3.160311 4.135671
C -0.193623 -0.069375 -4.021709
H 3.798448 -1.922160 3.726078
H 3.033720 -4.007654 1.971613
H 4.502052 -3.718100 2.437207
H 3.775356 -2.721540 1.471059
H 0.954148 -3.744746 4.535813
H 0.660754 -4.650710 2.366772
C -0.272405 -1.305749 2.578420
C -1.652447 -1.176072 2.671579
C -4.663818 0.008787 2.998687
C -4.280775 1.188316 3.840434
C -5.446204 1.031993 0.167958
C -5.147376 2.497523 0.072034
H 4.182849 2.561474 -6.935081
C -2.376426 -1.241799 -4.587918
H 5.099708 1.085285 -5.428649
C -2.497315 -2.611403 -3.980138
H 3.958728 0.573682 -3.501636
H 5.254555 -0.669798 1.059914
H 7.127663 -1.076594 2.357631
H 7.211879 -0.401562 4.537471
H 5.384953 0.625198 5.487493
H 3.420838 0.902316 4.265750
C -0.598399 3.536717 2.454907
C -0.103974 -4.510375 2.932210
H -4.711359 2.787076 0.877167
C -4.216935 0.078066 -2.526785
C -0.754605 4.543936 1.565282
H -5.967795 2.984257 -0.039665
C -0.791279 4.256159 0.219233
C -5.122927 -0.941587 -2.445518
H -4.574170 2.657399 -0.679669
C -0.632357 2.962940 -0.191987
C -6.265265 -0.948693 -3.249222
C -6.497536 0.063855 -4.138681
C -5.615993 1.087062 -4.206634
H 2.266275 -1.440756 -0.795624
C -4.465505 1.103049 -3.424213
H 2.819107 -3.581318 -1.407319
H 1.134803 -5.174748 -1.502022
C 3.634092 3.558034 -1.817680