108
Fe1 H44 C53 N6 O4
H -0.529784 -0.385170 3.523138
C 5.342466 -2.125014 -5.082144
H 2.766958 -0.949386 0.261523
C 5.619978 -1.523183 -3.874180
H 0.439106 0.473575 4.467183
C 4.576391 -1.203815 -3.018220
C 7.586242 -1.824453 -5.798912
H -0.161446 1.122956 3.134014
C -0.564216 3.127875 -0.097197
C -2.103573 2.126125 1.112770
C -2.719681 -0.242519 1.579681
C -1.968477 -2.211598 0.944190
C -0.158243 -2.987307 -0.588522
C 1.374021 -2.000460 -1.819819
H -8.618356 1.896535 4.681751
C 1.988757 0.378474 -2.287870
H -8.786511 3.007225 5.820100
C 1.245904 2.347199 -1.620406
H -8.279760 3.425952 4.360421
C -1.400298 4.163691 0.474028
C 4.741343 -1.454342 2.000621
C -2.344594 3.549086 1.221221
C -3.515384 -1.237172 2.251744
C -3.052673 -2.446511 1.855195
C 0.607146 -4.030574 -1.231811
C 1.554530 -3.424840 -1.983061
C 2.748427 1.381643 -2.991861
C 2.300816 2.590983 -2.564555
C -2.888980 1.143537 1.723446
C -4.669930 2.127544 4.899822
C -1.214299 -3.206606 0.308393
C 2.156683 -1.015034 -2.442962
C 0.496644 3.355336 -0.974002
C -3.977408 1.581426 2.651081
C -3.681708 1.817403 3.989900
C -5.992630 2.209516 4.482024
C -6.311209 1.994829 3.151976
O 6.293626 -2.414574 -6.022481
C -5.297821 1.687527 2.244812
C -1.555298 -4.633115 0.620027
C -2.561365 -5.309110 -0.057392
C -2.857637 -6.624550 0.244087
C -2.147499 -7.299835 1.227795
C -1.141317 -6.650099 1.905060
C -0.868839 -5.317271 1.593692
C -1.926267 -9.270334 2.553351
C 3.254148 -1.460729 -3.350819
C 2.995854 -2.107981 -4.559606
C 0.877794 4.772619 -1.268028
C 0.667315 5.346416 -2.523868
C 1.108978 6.623532 -2.812604
C 1.787087 7.357723 -1.847781
C 1.967252 6.829702 -0.583302
C 1.497907 5.549392 -0.302549
C 3.025481 9.300543 -1.289827
C 2.599947 -0.589210 3.249517
C 0.174863 0.297568 3.539236
C 3.337425 -0.956128 2.149689
H 6.516688 -1.329079 -3.629557
H 4.772228 -0.796799 -2.182212
C 1.350800 -0.188936 2.772148
H 8.015207 -2.258793 -5.030715
H 8.144469 -1.946523 -6.595888
H 7.482146 -0.867770 -5.617367
N -1.011370 1.896535 0.318463
O -6.903982 2.515754 5.453857
N -1.779046 -0.857479 0.790694
N 0.326545 -1.760935 -0.964712
N 1.077063 0.993079 -1.456045
N 1.301269 -0.299295 1.447601
N 2.530741 -0.777637 1.091128
O -2.535741 -8.594694 1.458062
O 2.255746 8.580546 -2.246862
C -8.252077 2.727956 5.047395
H 5.100530 -1.683932 2.882374
Fe -0.156298 0.053642 -0.080801
H -1.303066 5.100858 0.347671
H -3.033799 3.968877 1.721315
H 5.294994 -0.754217 1.595774
H -4.229182 -1.077133 2.857497
H -2.779851 1.761691 4.283174
H -3.383834 -3.294964 2.128833
H 4.747062 -2.248148 1.427160
H -4.447669 2.283325 5.810239
H 0.469991 -4.966322 -1.143148
H 2.213307 -3.855632 -2.517031
H 3.432712 1.225863 -3.632966
H 2.625113 3.440146 -2.839098
H -7.212494 2.056219 2.859366
H -5.517222 1.548779 1.331126
H -3.053245 -4.863414 -0.735820
H -3.551989 -7.070600 -0.225451
H -0.639599 -7.102537 2.573777
H -0.183180 -4.866963 2.072712
H -2.096938 -8.770346 3.379881
H -2.302841 -10.172015 2.631199
H -0.959894 -9.331014 2.401711
H 2.100060 -2.319118 -4.795758
H 3.839943 -2.893980 -6.238113
H 0.211468 4.848912 -3.193021
H 0.949288 6.999321 -3.670776
H 2.407771 7.336432 0.089324
H 1.605892 5.200217 0.573417
H 3.780460 8.748747 -0.995418
H 3.364078 10.125576 -1.696734
H 2.463822 9.522326 -0.518653
H 2.883637 -0.605178 4.156075
C 4.026858 -2.446156 -5.420959