92
Fe1 H36 C49 N6
C 2.496998 -4.996451 -0.702610
H 4.708301 1.677618 -2.224755
C -3.787906 -1.737969 2.600631
H 6.313807 2.498643 -3.660622
C -5.122339 -1.587345 2.273294
C -6.114526 -2.002179 3.153437
H 5.764469 3.072743 -5.803775
C -5.787976 -2.576588 4.344083
C -3.463426 -2.355590 3.802652
C -1.783804 4.615715 0.488767
C -2.672881 7.196079 1.025321
C -2.465790 5.298153 -0.436404
C -2.878883 6.563643 -0.157323
C -1.954600 6.480305 1.968596
C -1.467390 5.177777 1.720842
C 2.342552 0.474477 2.029925
C 3.237951 1.232536 1.115638
N 0.337795 1.868676 -1.022718
N 1.208779 -0.841941 -1.557475
H -7.008726 -1.887359 2.926838
N -0.824752 -1.872543 0.242623
N -1.724510 0.831592 0.727844
N 1.180222 0.016123 1.612915
N 0.638623 -0.581435 2.708296
H 4.061957 1.433780 1.567074
H -4.242418 -3.177541 5.474781
C 4.475051 1.901394 -3.097333
C 5.438572 2.396169 -3.957033
C 5.113765 2.731987 -5.232731
H 3.268469 0.381263 3.898153
H 0.032390 -1.069420 5.169892
H 1.373036 -0.587917 5.823593
H 1.291289 -2.001561 5.155369
Fe -0.035569 0.021154 -0.162612
H 0.147925 5.032709 -1.406823
H 1.898395 4.023404 -2.788536
H 3.487550 -0.955218 -3.785303
H 2.794338 -3.183714 -3.029915
H -0.857014 -5.060342 0.345689
H -2.644542 -4.054124 1.690595
H -4.163941 0.949190 2.775093
H -3.428221 3.171513 2.046792
H 3.625975 2.794953 -6.547266
H 1.997581 1.977014 -5.125081
H -0.177972 -5.285661 -2.473139
H 0.704893 -7.384522 -2.830737
H 2.679893 -8.001834 -1.845005
H 3.801458 -6.511026 -0.510932
H 2.965462 -4.396732 -0.167381
H -5.357443 -1.205229 1.458429
H -6.456119 -2.838019 4.935187
H -2.571515 -2.492324 4.026825
H -2.991148 8.054451 1.190261
H -2.656532 4.909246 -1.260281
H -3.333395 7.026627 -0.823007
H -1.787837 6.869212 2.796711
H -0.959470 4.717880 2.350714
H -0.126744 -0.973737 2.705786
H 3.421063 0.702265 0.335906
H 2.809598 2.051092 0.853886
C -4.465859 -2.768572 4.669281
C -0.261244 3.063175 -0.699027
C 1.311344 2.150479 -1.953536
C 2.058400 -0.176787 -2.412438
C 1.444101 -2.185212 -1.725944
C -0.284351 -3.070128 -0.156701
C -1.876668 -2.169470 1.069515
C -2.629392 0.167056 1.523866
C -1.976835 2.173628 0.867624
C 1.416634 -0.496246 3.787044
C 0.367115 4.128347 -1.445412
C 2.527299 0.169525 3.378155
C 1.328784 3.574309 -2.207463
C 2.840008 -1.143806 -3.143476
C 2.460485 -2.370097 -2.726788
C 0.989371 -1.092878 5.103212
C -1.024868 -4.151659 0.448642
C -2.005174 -3.597930 1.191850
C -3.470620 1.133766 2.182830
C -3.066028 2.357279 1.780283
C 2.134915 1.210313 -2.579929
C 0.790236 -3.225382 -1.044440
C -2.712556 -1.219118 1.692243
C -1.309673 3.219663 0.206900
C 3.179093 1.737189 -3.516520
C 3.845056 2.573338 -5.671384
C 2.869218 2.079797 -4.817932
C 1.304150 -4.609705 -1.278033
C 0.629686 -5.523326 -2.077705
C 1.157224 -6.782334 -2.286614
C 2.334377 -7.151487 -1.703121
C 3.000340 -6.261632 -0.912273