94
Ho1 H38 C48 N4 Cl1 O2
C 4.352597 0.165097 -0.283425
C 0.393881 0.809065 4.007673
C 4.087011 1.420585 0.063454
C 2.658773 1.577833 0.059428
C 1.977139 2.793385 0.277033
C 0.567139 2.973097 0.231007
C -0.081439 4.258537 0.343207
C -1.378594 4.031401 0.274635
C -1.588327 2.598697 0.070502
C -2.829630 1.982185 -0.104670
C -2.684868 -3.626327 -2.295745
C -3.024545 -4.774487 -1.667226
C -3.749493 -5.760407 -2.336879
C -4.142743 -5.543255 -3.632155
C -3.809905 -4.402583 -4.273761
C -3.074698 -3.426647 -3.610661
C 4.145144 -2.615447 -1.297948
C 5.166454 -2.163671 -2.136995
C 5.420642 -4.624727 -0.860611
C 4.305863 -3.860951 -0.689648
C 2.792136 4.026409 0.541783
C 3.110155 4.909993 -0.469506
C 3.836243 6.025705 -0.206463
C 4.240892 6.330217 1.066278
H -6.641305 3.155305 1.998771
C 3.949089 5.471593 2.065224
H -7.117764 4.862569 0.531296
C 3.236679 4.305961 1.798634
C -4.065233 2.808361 0.063428
H -5.752218 5.256937 -1.245049
C -4.913285 2.576233 1.107105
C -5.539065 4.560553 -0.633130
C -4.392371 3.801769 -0.829826
C -0.761932 1.380649 3.307534
C -2.616477 -0.164375 3.013781
C 2.382928 -0.171863 3.080737
N -2.005514 -0.304151 -0.587687
N 0.452013 -1.856663 -1.060452
N 2.058069 0.379753 -0.254770
N -0.359564 1.984681 0.054910
Cl -0.333347 -2.414269 2.114595
O -1.546153 0.539497 2.396139
O 1.206597 0.459625 2.634309
H 7.022138 -2.630423 -2.893823
H 7.223892 -4.677143 -1.814957
H 4.230633 5.663785 2.952376
H 0.865781 1.468009 4.575244
H 0.164770 0.002857 4.535215
Ho -0.018861 -0.292569 0.639089
C -6.055420 3.332521 1.272425
H -5.110480 0.454633 -0.853744
C -6.342663 4.328425 0.402909
H -4.614643 -1.844183 -1.630920
H 2.151537 -1.013015 3.528433
H -0.197704 -4.537367 -2.687267
H 2.850268 0.414697 3.710821
H 2.224488 -4.195415 -2.385768
H 5.214328 -0.229271 -0.358324
H 4.725330 2.092009 0.274839
H 0.343727 5.102185 0.445111
H -2.062507 4.687849 0.345874
H -2.766938 -4.911767 -0.762896
H -3.968345 -6.576599 -1.900809
H -4.655677 -6.202199 -4.084349
H -4.076631 -4.267799 -5.174782
H -2.839888 -2.622935 -4.058183
H 5.078685 -1.327511 -2.580696
C 6.325687 -2.942423 -2.328334
H 5.503851 -5.463383 -0.423747
H 3.608272 -4.190423 -0.133653
C 6.440812 -4.152983 -1.689337
H 2.818352 4.735273 -1.355766
H 4.068773 6.609769 -0.920653
H 4.719631 7.133929 1.242155
H 3.056582 3.696937 2.503706
H -4.714950 1.884841 1.725816
H -3.836122 3.966505 -1.580802
H -0.439353 2.159401 2.788538
H -1.382014 1.730089 3.995337
H -3.244537 0.477097 3.408677
H -3.080398 -0.706007 2.342827
H -2.260842 -0.745943 3.716949
H 2.964254 -0.359063 2.315001
C -3.026825 0.614377 -0.446393
C -4.257868 0.037801 -0.867307
C -3.986583 -1.217687 -1.289850
C -2.580001 -1.427351 -1.130773
C -1.886969 -2.548055 -1.598779
C -0.497486 -2.732759 -1.587769
C 0.206944 -3.811031 -2.228334
C 1.530316 -3.626327 -2.071617
C 1.687616 -2.395799 -1.333283
C 2.908401 -1.821719 -1.030364
C 3.083939 -0.493847 -0.526513