114
Co1 P1 H43 C62 N5 O2
Co 0.096892 -0.764366 -0.096624
P -0.271983 1.620693 0.133650
H 4.982956 -0.273665 -0.442036
H 4.613341 0.430092 2.034500
H 0.350448 -1.141310 4.967240
H 1.557857 3.543973 -3.830980
H 3.603060 3.698221 -3.092364
H -1.670114 -2.211405 4.576208
H 4.243726 3.274039 -0.637552
H -4.848803 -2.510261 0.187960
H -4.602393 -1.285917 -2.266852
H 1.065037 4.016358 1.274160
H -0.388782 0.304765 -5.025800
H 1.976754 -0.370070 -4.721664
H 0.867909 4.797238 3.207596
H 2.691343 1.982212 3.272768
H -0.171941 3.973939 5.164929
H 4.694657 1.290024 6.913711
H 3.933250 -0.929219 6.772505
H 2.743089 -1.639724 4.958551
H -5.240595 3.986472 -0.672310
H -2.234393 -4.844226 2.247396
H -3.338309 5.071028 -1.400064
H -3.757206 -6.213177 3.298837
H -1.236432 4.106978 -1.076376
H -5.748199 -5.399519 4.098280
H -6.253340 -3.165815 3.815868
H -4.794593 -1.745769 2.697082
H -2.382239 -1.054545 -5.271281
H -3.907517 -0.238959 -6.841926
H -5.243059 1.451985 -6.524756
H -5.107533 2.539433 -4.265460
H -3.599504 1.756624 -2.673090
H 3.832222 -2.891061 -2.903365
H 5.776396 -3.280537 -4.082978
H 7.139044 -1.583809 -4.771629
H 6.530411 0.578555 -4.300218
H 4.645375 1.050940 -3.064122
H -0.216295 2.695609 -2.570988
H 2.420292 2.097898 0.470372
H -1.201935 1.943650 4.445864
H -1.423704 0.969960 2.794840
H -3.000728 0.877411 0.607234
H -5.045931 1.972572 0.405200
C 2.991963 -0.458762 -0.615828
C 4.224013 -0.204253 0.055444
C 3.960355 0.061825 1.343677
C 2.548425 -0.142554 1.537021
C 1.907759 -0.264988 2.742703
C 0.660925 -0.884873 2.866530
C 0.052292 -1.324479 4.089591
C -1.076266 -1.983890 3.761558
C -1.233968 -1.879772 2.353843
C -2.352669 -2.277925 1.641296
C -2.626185 -1.862419 0.337856
C -3.895196 -1.987746 -0.320381
C -3.813881 -1.308090 -1.495650
C -2.466018 -0.807749 -1.582546
C -1.916524 -0.246671 -2.740435
C -0.546484 -0.211002 -2.940296
C 0.116359 -0.062538 -4.213322
C 1.412475 -0.338256 -3.998254
C 1.594819 -0.553239 -2.610091
C 2.849046 -0.631327 -1.975750
C 1.619460 3.312601 -3.103226
C 2.649454 0.130272 3.991833
C 2.858902 3.534333 -2.616608
C 3.221125 3.179562 -1.341409
C 3.085599 1.487655 4.104798
C 3.824829 1.884843 5.175791
C 4.169803 1.008522 6.175095
C 0.518007 3.624953 2.006259
C 3.726265 -0.312227 6.079509
C 0.471189 4.189887 3.266251
C 3.009212 -0.728696 5.008516
C -3.362950 -3.134001 2.342981
C -0.157156 3.572895 4.302486
C -3.064794 -4.488491 2.547187
C -3.966655 -5.296365 3.177183
C -5.146959 -4.823981 3.633387
C -5.464828 -3.522513 3.420492
C -4.572824 -2.664509 2.803530
C -2.845489 0.226677 -3.794049
C -4.392944 3.572895 -0.572380
C -3.266851 4.218808 -0.989480
C -2.944053 -0.321867 -5.038834
C -2.020016 3.635558 -0.817861
C -3.860699 0.160158 -5.983828
C -4.681244 1.201332 -5.692726
C -4.560503 1.789402 -4.471838
C -3.658642 1.324730 -3.515982
C 4.051526 -0.883908 -2.796917
C 4.389108 -2.163203 -3.151018
C 5.539843 -2.384934 -3.870083
C 6.343139 -1.401603 -4.285011
C 5.988309 -0.138698 -3.989565
C 4.867144 0.150517 -3.257466
C 0.931976 2.453633 -0.935170
C 0.653533 2.761165 -2.260334
C 2.255198 2.637766 -0.502863
C -0.120195 2.377473 1.789019
C -0.760861 2.387113 4.091763
C -0.787966 1.782654 2.855668
C -1.911596 2.349515 -0.261726
C -3.052474 1.722883 0.177098
C -4.306701 2.348551 -0.020590
N 1.971826 -0.410560 0.305270
N -0.159620 -1.186620 1.808571
N -1.771142 -1.137454 -0.446380
N 0.397266 -0.477079 -1.969233
H 4.113129 2.789122 5.234446
N 0.540184 -2.693430 -0.385553
O 1.365657 -3.219802 0.329166
O -0.065985 -3.272824 -1.258858