74
Fe1 H36 C32 I1 N4
H -1.504920 2.969114 -2.905388
C 1.345565 -0.361090 2.782121
C 1.174738 -0.059347 4.185297
C -3.203674 4.518932 -1.377375
C 0.124039 0.827839 4.228739
C 2.299025 -1.281357 2.301836
H -1.826988 2.289440 3.203249
N -0.985748 1.855370 0.096497
H -1.582943 0.668446 -6.087528
H 1.439101 0.195281 -6.197989
H 2.361343 -0.707944 -5.309715
H 0.944164 -1.220206 -5.741866
C 1.985408 -0.627747 5.341806
Fe 0.085710 0.093831 -0.003360
C 1.394981 -1.797629 5.971100
H 2.275129 -1.837728 -3.213102
H 2.862548 -1.687357 2.921242
H 0.218315 1.601745 6.128529
H -0.911236 2.265380 5.265871
C 4.263672 -3.462731 1.378888
H -4.269003 4.313426 1.433842
C 3.705342 -3.984015 -1.794922
H -3.524281 3.639766 2.635470
H -2.818034 6.091806 1.455619
I -1.784940 -1.735977 -0.008484
H -3.324448 5.893317 2.925468
N 0.375253 0.495019 -2.003796
H -1.901142 5.384063 2.511096
N 1.795447 -1.054799 -0.105923
H -3.413191 5.310883 -0.876213
N 0.465920 0.339636 2.005609
H -2.643281 4.750502 -2.121672
H -4.014276 4.119949 -1.699405
C 5.114879 -3.452706 -2.199842
H 3.789545 -3.675254 2.185550
H 2.095450 0.063957 6.013544
H 2.868448 -0.862325 5.016349
H 1.356899 -2.517402 5.336454
H 1.931780 -2.062281 6.722760
C -0.286531 1.435335 -2.782242
H 4.513903 -4.271724 0.929285
C 0.052171 1.224817 -4.181837
H 5.049840 -2.956484 1.593071
H 0.507599 -1.587110 6.270489
H -1.119624 0.829844 5.861950
C -0.455532 2.100975 -5.295816
C -1.647813 1.618787 -5.964476
C 2.284476 -1.657283 -1.254506
C 2.451386 -1.618187 0.970827
C -0.275033 1.063419 2.901414
C -1.296927 1.943588 2.521285
H 3.124796 -4.096291 -2.560543
H 0.249100 2.199217 -5.955885
C -1.596316 2.348585 1.236357
H -0.641036 2.982146 -4.934534
C -2.554824 3.384136 0.872210
H -2.418827 1.819281 -5.429029
C -2.477390 3.535509 -0.485731
H -1.731830 2.047844 -6.819807
C -1.503400 2.571133 -0.948919
C -1.132229 2.382669 -2.286958
H 3.751521 -4.804035 -1.285067
C 1.453808 -0.448305 -5.485902
C 0.857184 0.160194 -4.249423
C 1.081461 -0.283900 -2.923774
C 1.919350 -1.315441 -2.530993
H 5.356364 -2.710879 -1.640955
H 5.765541 -4.156440 -2.087349
H 5.106772 -3.176024 -3.117174
C 3.266981 -2.676795 -0.856449
C 3.366015 -2.636696 0.470385
C -0.477152 1.437340 5.487586
C -3.396423 4.167065 1.831529
C -2.805497 5.506364 2.216133