74
Fe1 H36 C32 N4 Cl1
C -3.371589 2.735552 -4.663210
C -0.994070 1.398649 3.909157
C 1.644436 -3.582338 1.668965
C 1.192423 -2.749404 0.575880
C 1.400394 -3.040710 -0.720466
C 0.973895 -2.257619 -1.801290
C 1.163731 -2.649718 -3.152038
H -1.761990 3.895235 4.564314
C 0.619136 -1.634026 -3.907417
H -1.971909 4.432433 3.105690
N -0.946324 1.409726 -1.083626
C 0.098690 -0.613904 -2.985032
C -0.509666 0.562393 -3.316342
N -0.699893 0.844837 1.667784
C 0.622839 -1.701592 2.447359
H -0.010459 0.987721 5.609198
C 1.251959 -2.988651 2.806672
H -4.040430 4.330531 4.348036
C -0.883641 1.310039 5.371561
H -1.343700 2.766566 -4.861645
C 2.423513 -4.882689 1.555251
C 1.843929 -3.882504 -3.717038
H -4.020039 3.290472 -4.223233
C 3.299027 -3.768419 -3.841687
H -3.468631 2.823054 -5.614021
C 0.634908 -1.453484 -5.408478
H -3.510056 1.820654 -4.410251
Fe 0.214001 0.102507 -0.004568
C -0.509321 0.395142 2.967003
H 1.861856 -3.823800 -0.916280
H -0.592746 0.744043 -4.224400
C 0.111213 -0.757896 3.324860
C 1.503872 -3.386288 4.229277
C 2.794909 -2.856844 4.839292
C -2.651483 4.710447 -1.570536
N 0.601891 -1.617412 1.093431
N 0.330130 -1.058062 -1.711383
H -2.159253 3.659311 0.916812
Cl 2.190134 1.158738 0.001814
H 2.145658 -5.354537 0.767697
H 3.362279 -4.689962 1.498446
H 1.470682 -4.068585 -4.592742
H 0.201038 -0.929577 4.234785
H 1.640311 -4.639012 -3.144068
H -3.904299 2.768781 4.381519
H 0.760041 -3.078369 4.769487
H 3.689731 -3.679809 -2.969794
C -2.163427 3.693647 3.704873
H -4.120679 3.507566 3.015906
H 1.517306 -4.355460 4.278825
C -3.705196 3.562948 3.879553
H 3.645049 -4.555940 -4.269163
H 0.985917 -2.245435 -5.823234
H -1.016765 2.180632 5.756961
H -0.259506 -1.299524 -5.721590
H -1.549705 0.706384 5.708007
H 1.186132 -0.702514 -5.636746
H 2.254590 -5.425425 2.329535
C -1.015044 1.508304 -2.453953
H 3.515296 -2.996405 -4.370401
C -1.701988 2.731122 -2.842474
H 2.777854 -1.896533 4.839634
C -2.000288 3.391266 -1.693502
C -1.539586 2.568301 -0.579259
C -1.731468 2.857391 0.720743
H -1.921086 4.126728 -4.329764
C -1.348961 2.067655 1.792515
H 2.876443 -3.174732 5.741154
H -3.499775 4.692725 -2.019356
H -2.784540 4.915357 -0.641452
H -2.092068 5.381667 -1.968829
H 3.542834 -3.163656 4.322261
C -1.995191 3.161988 -4.261318
C -1.531472 2.401050 3.138499