74
Fe1 H36 C32 N4 F1
Fe -0.076305 -0.350528 0.006299
C -4.572269 1.079618 -3.961585
H -1.447669 0.672169 -4.015509
C 0.461037 -0.278545 -5.588881
H -2.165622 2.403305 5.211589
H -3.824672 2.898512 3.727379
C 3.190770 -1.766256 -0.190880
N -0.883524 0.711869 1.524072
H -3.803329 3.393719 2.241019
N -1.458437 0.874849 -0.837468
N 0.750836 -0.438390 -1.875539
C 0.435014 0.042191 3.376230
C -1.826758 1.519454 5.000001
C 3.086967 -1.567755 -4.534286
C 4.532737 -2.560259 2.413439
H 3.581242 -1.968936 -2.052470
H 3.981239 -2.241613 -0.070426
C 4.073284 -0.497940 -4.871434
C -2.743598 0.485161 5.602136
C 2.627350 -1.422536 1.026472
F -1.012146 -2.042068 0.138940
C 2.527627 -1.264780 3.254610
C 1.423496 -0.603459 2.647749
H -5.110498 2.197491 0.192657
C 3.259453 -1.779838 2.262861
N 1.486233 -0.706889 1.269251
H -5.236863 0.814254 -3.320545
H 0.519360 0.035922 4.302694
H -5.005219 1.369011 -4.769017
H -0.948347 1.434830 5.404261
H -3.998549 0.335763 -4.154521
H -0.262890 -0.867779 -5.814180
H -2.384455 -0.391377 5.445294
H 0.181406 0.631424 -5.707657
H -2.818589 0.635603 6.547262
H -3.612138 0.553069 5.198112
H -4.550710 2.067943 2.613822
C 5.737109 -1.637753 2.343928
C 2.788729 -1.358807 4.717293
H 1.210507 -0.460330 -6.159184
H 3.542091 -2.279224 -4.056598
H 2.731785 -1.941772 -5.354478
H 4.478405 -0.169892 -4.064619
H 4.752754 -0.858376 -5.445351
H 3.624189 0.221886 -5.319360
H 4.592040 -3.223670 1.708912
C -2.012767 1.405577 1.314130
C -2.354114 1.489157 -0.046737
C -4.610937 2.766875 -0.396281
C -3.387171 2.055406 -0.853809
C -3.060284 1.783774 -2.154904
C -1.848291 1.036784 -2.126226
C -1.112677 0.550979 -3.156609
C 0.095325 -0.110342 -3.032437
C 0.854809 -0.495851 -4.163571
H 4.528631 -3.025169 3.264690
H 5.721411 -1.033893 3.090872
C -0.645301 0.680527 2.856176
H 6.542140 -2.160123 2.373890
H 5.709884 -1.136277 1.526638
C -1.694795 1.391996 3.520446
C -2.536866 1.845413 2.571680
H 2.989780 -0.486448 5.063931
C 1.970657 -1.067324 -3.707158
C -3.790835 2.620611 2.809332
C 1.910310 -1.045385 -2.276964
H -5.151423 2.993584 -1.156362
C 2.912865 -1.604321 -1.516957
H 2.010761 -1.707750 5.159200
H -4.359566 3.568191 0.068101
H 3.533943 -1.944907 4.872469
H -3.136689 2.458676 -4.079626
H -4.368641 2.923586 -3.228983
C -3.784439 2.173462 -3.417035