148
H79 Rh1 C62 I1 N5
H -5.525915 -0.662447 -3.948131
C -0.910927 -3.049184 -0.595031
N 0.906835 1.399879 0.927914
H 2.755159 2.342987 8.521936
H -6.022198 -0.850142 -6.763168
H 3.750634 1.726607 9.615560
H -5.984358 -1.960090 -4.769218
H -4.919025 0.215779 -6.297561
H 4.021334 1.480981 8.055718
C -0.781398 -0.759770 -3.241267
H -6.583972 1.626966 -5.933358
C -0.992427 -1.783982 -2.397173
H -7.676957 0.470673 -6.109735
H -3.056147 -5.116144 -2.418490
C -0.263285 0.544824 -2.956143
H -6.998753 0.718616 -4.681655
H 2.392771 3.888573 4.100830
C -0.020238 1.511105 -4.001054
H -1.797249 -5.862289 -1.770573
H -2.926619 -5.232005 -0.825953
C 0.438205 2.653495 -3.280232
H 0.037977 3.765760 4.663294
C 0.477500 2.301277 -1.884583
C 0.893736 3.103035 -0.813083
C 1.049461 2.734597 0.513627
C 1.440957 3.513183 1.664084
C 1.547199 2.711425 2.716533
C 1.254669 1.325728 2.256350
C 0.774396 -4.620259 3.688585
H -1.744856 -2.977350 -4.763897
H -2.139262 -4.404757 -4.161112
C 1.839729 -2.152420 4.881215
C 0.818057 -1.941553 6.013764
H -2.244049 1.149619 -5.507610
H 3.290736 4.171274 -1.228359
C -3.920639 -1.670438 -4.817049
H -1.746311 2.665081 -5.621162
H 3.842323 6.442149 -1.707780
C -5.377467 -1.179187 -4.781445
C -0.168686 1.311824 -5.494570
H 2.191929 8.041031 -1.984898
C -5.731123 -0.287058 -6.008935
H -2.450712 2.356890 -7.727284
H -0.012961 7.547463 -1.592098
C -6.851761 0.732519 -5.642723
H -0.632950 5.306712 -1.097759
H -1.565845 -0.382064 -7.637195
C 1.487529 -1.575432 7.352973
H -3.095442 0.086015 -7.606908
C 1.909587 -0.101680 7.417688
C 2.477183 0.292247 8.796476
H -2.383764 -0.718060 -9.795727
C 1.905221 3.026567 4.088723
C 3.321299 1.589891 8.759951
H -3.064879 1.983818 -10.310713
C -0.822149 -4.960890 0.998816
H -3.743083 0.669954 -10.919389
H -4.127302 1.156571 -9.446531
C 0.008869 -5.999005 0.455586
C -0.292393 -7.312869 0.815828
C -1.382468 -7.621059 1.565694
H 1.816443 2.994126 6.795882
H -1.564389 -8.527092 1.790964
H -2.971735 -6.874914 2.491514
H -2.529302 -4.624893 1.997204
H -0.467038 2.639591 7.467554
H 1.020354 3.355612 9.202021
H -0.611120 3.534038 10.689421
C 1.097489 3.582700 6.458193
H -3.852236 1.469395 2.369798
C -0.088641 3.559528 7.444028
H -4.326688 1.840150 0.886763
H -4.626495 0.387253 1.481938
C 0.687073 3.844546 -4.232475
C -1.658988 -3.790694 -1.627709
N -1.698284 0.345544 0.530849
C 1.654897 5.028645 1.874157
C -1.663355 -3.035280 -2.723194
C -2.430336 -5.120778 -1.665389
H 1.458421 4.504953 6.409051
H -0.795952 4.166639 7.115349
C 1.219740 4.528126 -1.193506
C -2.248415 -3.429208 -4.041162
C 2.618354 4.833999 -1.326021
C -3.741628 -3.070039 -4.170714
C 2.931259 6.189572 -1.608105
H 0.708904 4.884978 8.844316
C 1.945971 7.155853 -1.745221
C -1.577488 1.742827 -5.934792
C 0.647778 6.866201 -1.541477
C -1.772508 1.689531 -7.464348
H 0.289756 -2.771117 6.130891
C 0.281024 5.517579 -1.253094
H -1.171438 4.875709 10.022007
H 0.192246 -1.218580 5.755071
C -2.194566 0.299199 -7.975068
C -2.252781 0.222731 -9.520630
C 0.323230 3.976627 8.872151
C -3.402526 1.080102 -10.101797
C -0.884730 3.953455 9.846710
C -2.198932 -6.650144 1.989669
C -1.931143 -5.301522 1.699034
H -1.618238 3.450618 9.448491
H 1.587949 0.391888 3.918398
C 0.138398 -2.810510 1.609033
H -1.004070 -0.921976 -4.152170
C -2.717045 0.649099 0.937003
H 0.152951 -4.599404 4.445856
C -3.983220 1.126447 1.461996
H 0.553179 -5.375673 3.102506
H 1.691281 -4.722217 4.020403
H 3.033135 -0.446946 9.139405
N 0.064174 0.975827 -1.742876
H 1.237204 3.552576 -4.984860
H 1.727665 0.431281 9.430435
H 2.331645 -2.998205 5.034565
H 2.496102 -1.410909 4.887400
H 0.509518 1.851737 -5.974975
H -0.024604 0.359447 -5.722329
H 2.519388 2.326767 4.424842
H -0.915293 1.942108 -7.903464
H 0.253372 2.238712 5.094471
H -1.391200 0.533238 -9.891108
H 0.732190 -5.797407 -0.126904
C 0.692895 3.123890 5.036134
H 0.281024 -8.012669 0.527467
Rh 0.198359 -0.213833 -0.098331
H -0.178874 4.173591 -4.570253
H 1.138239 4.562884 -3.745904
I 2.605401 -0.823726 -0.875389
C 1.301241 0.245903 3.025359
H 0.848620 -1.763127 8.091543
H -4.197160 -3.751301 -4.725922
C 0.979603 -1.102719 2.693047
H 1.486073 5.255733 2.810120
H 2.280707 -2.145468 7.488363
H -4.162231 -3.076990 -3.274443
H -3.615010 -1.709831 -5.755187
C 1.167347 -2.203398 3.563091
H 2.577603 5.262684 1.638281
C 0.659421 -3.313347 2.899919
N 0.404731 -1.427130 1.487981
H -3.348677 -1.019299 -4.337697
H 1.036363 5.526847 1.299989
N -0.602387 -1.797885 -1.087505
H 1.119319 0.477625 7.219724
H 2.587791 0.079063 6.722925
C -0.517976 -3.535800 0.638234