109
Co1 H50 C52 N6
H 0.502477 2.951414 0.947793
H -1.868435 3.430987 2.468454
H 1.538328 -1.169597 -1.448470
H -0.403283 3.332777 3.104197
H 0.232538 -1.105824 -2.135445
H 0.208146 5.266374 1.786136
H -4.863785 -0.764001 -1.385594
H -1.335061 5.407950 1.380937
H -4.517417 -2.350673 0.479718
H -0.809818 6.821160 3.199675
H -0.456945 -3.580216 3.623504
H -0.387021 5.544425 4.065963
H 1.886322 -2.823868 3.823775
H -1.912341 5.744672 3.628161
H -2.982341 -4.657980 0.836014
C 2.815661 0.211726 1.110106
H -4.283253 -6.202562 2.007365
C 2.505394 1.618559 -0.545389
H -4.932083 -5.758702 4.210344
C 0.634195 2.158078 -2.030653
H -4.252356 -3.775362 5.241971
C -1.447915 1.476983 -2.215787
H -2.920547 -2.248636 4.089250
C 4.057219 0.895373 0.899588
H -3.673450 -0.596915 -4.084592
C 3.869563 1.758859 -0.115738
H -5.413420 -0.063773 -5.554021
C 0.032523 2.914426 -3.096978
H 6.517569 -1.966759 5.379366
C -1.240745 2.501177 -3.206894
H 5.954925 -3.447568 3.674736
C 1.952994 2.322613 -1.609618
H 4.237721 -2.927181 2.182020
C -2.638250 0.794612 -2.059762
H 0.964301 -3.041972 -0.319036
C 2.811596 3.303441 -2.341305
H -0.502477 -2.951414 -0.947793
C 3.231140 4.478140 -1.734438
H 1.868435 -3.430987 -2.468454
C 4.011687 5.395196 -2.428633
H 0.403283 -3.332777 -3.104197
C 4.393830 5.135002 -3.736680
H -0.208146 -5.266374 -1.786136
C 3.988921 3.959028 -4.347040
H 1.335061 -5.407950 -1.380937
C 3.200244 3.049625 -3.660764
H 0.809818 -6.821160 -3.199675
C -3.775572 1.110926 -2.984035
H 0.387021 -5.544425 -4.065963
C -4.133648 0.229583 -3.992375
H 1.912341 -5.744672 -3.628161
C -5.166247 0.550999 -4.872868
C -2.815661 -0.211726 -1.110106
C -5.828086 1.746105 -4.765047
C -2.505394 -1.618559 0.545389
C -5.488222 2.624897 -3.760200
C -0.634195 -2.158078 2.030653
C -4.467007 2.314960 -2.870625
C 1.447915 -1.476983 2.215787
C -0.455319 2.770299 1.121982
C -4.057219 -0.895373 -0.899588
C -0.909012 3.609552 2.299155
C -3.869563 -1.758859 0.115738
C -0.718754 5.094187 2.089802
C -0.032523 -2.914426 3.096978
C -0.978936 5.869667 3.355700
C 1.240745 -2.501177 3.206894
N 1.863231 0.660051 0.217969
C -1.952994 -2.322613 1.609618
N -0.284249 1.280562 -1.488757
C 2.638250 -0.794612 2.059762
N -0.637284 1.314999 1.335760
C -2.811596 -3.303441 2.341305
C -3.231140 -4.478140 1.734438
C -4.011687 -5.395196 2.428633
C -4.393830 -5.135002 3.736680
C -3.988921 -3.959028 4.347040
C -3.200244 -3.049625 3.660764
C 3.775572 -1.110926 2.984035
C 4.133648 -0.229583 3.992375
C 5.166247 -0.550999 4.872868
C 5.828086 -1.746105 4.765047
Co 0.000000 0.000000 -0.000000
C 5.488222 -2.624897 3.760200
H -1.538328 1.169597 1.448470
C 4.467007 -2.314960 2.870625
H -0.232538 1.105824 2.135445
C 0.455319 -2.770299 -1.121982
H 4.863785 0.764001 1.385594
C 0.909012 -3.609552 -2.299155
H 4.517417 2.350673 -0.479718
C 0.718754 -5.094187 -2.089802
H 0.456945 3.580216 -3.623504
C 0.978936 -5.869667 -3.355700
H -1.886322 2.823868 -3.823775
N -1.863231 -0.660051 -0.217969
H 2.982341 4.657980 -0.836014
N 0.284249 -1.280562 1.488757
H 4.283253 6.202562 -2.007365
N 0.637284 -1.314999 -1.335760
H 4.932083 5.758702 -4.210344
H 4.252356 3.775362 -5.241971
H 2.920547 2.248636 -4.089250
H 3.673450 0.596915 4.084592
H 5.413420 0.063773 5.554021
H -6.517569 1.966759 -5.379366
H -5.954925 3.447568 -3.674736
H -4.237721 2.927181 -2.182020
H -0.964301 3.041972 0.319036