18
H12 C6
H -2.229235 0.437355 -0.596483
H 0.883022 -1.349732 1.045229
H 2.196712 -0.513812 0.666299
C -0.597548 -0.704921 -1.118446
H -1.160983 1.659869 1.155884
H 1.278093 0.062432 -1.407628
H 1.270102 -1.532087 -1.255248
H -0.984777 -1.508746 -0.688352
C -0.853296 0.759761 0.881183
H -0.789964 -0.754522 -2.088276
C 0.605527 0.659100 1.125292
C 0.880062 -0.693251 -0.905265
C 1.213086 -0.554660 0.555334
C -1.246008 0.530722 -0.541457
H -1.318469 0.097444 1.451720
H -0.983882 1.317040 -1.082071
H 1.050178 1.452713 0.736867
H 0.767483 0.670771 2.102099