11
H5 C6
C -1.146265 0.742673 -0.214273
H -0.128587 -2.203815 0.552095
C -1.214561 -0.586762 0.118516
H 1.922693 -1.191399 0.356864
C -0.074653 -1.303890 0.327079
H 2.054159 1.044352 -0.232393
C 1.146028 -0.703087 0.206784
C 1.221274 0.641687 -0.137931
C 0.079000 1.388216 -0.344012
H -1.933148 1.219480 -0.356020
H -2.044070 -0.999654 0.201823