84
H44 C36 N4
H 5.535171 -0.591205 -4.389481
H -4.238778 -0.591205 4.887152
H -3.777394 0.844349 4.523594
H -5.240983 0.590558 4.969439
H -5.632725 -2.655787 1.280153
H -5.652312 -4.200331 1.415161
H -5.649047 -0.631687 2.926722
C -4.441178 0.154598 4.433981
H -1.774072 -4.018162 1.252096
H 0.469737 -6.495349 -0.676705
H -0.404065 -6.124783 0.550910
H 3.416503 -4.446337 -1.514785
H 2.428444 -5.638999 -1.588263
H -3.561936 -4.080442 2.518779
H -1.855684 -5.268433 -0.739407
H -0.981883 -5.637442 -1.967022
H -1.596700 -6.758482 -1.088691
H 2.503528 -3.563518 -3.692137
H 3.060671 -4.991287 -3.935975
H 1.532879 -4.771750 -3.769103
H 3.594963 -2.092153 -1.766572
H 2.073700 3.746597 -0.287470
H -3.384564 2.161571 1.922712
H 5.257688 -1.103458 -2.152422
H 4.050906 3.840017 -1.106310
H 5.287068 3.123797 -1.709634
H -0.264779 6.301634 0.914598
H -4.593522 -3.515251 0.512992
H 1.155284 5.781596 0.570244
H -2.221310 5.720873 2.277918
H -5.181134 0.802310 2.562240
C -0.186430 -3.052822 0.111115
C 0.422945 -4.267282 -0.364607
C 1.521998 -3.862462 -1.063350
C 1.598170 -2.398882 -0.940860
H 4.898591 0.803867 -4.155935
H 4.034584 -0.475987 -4.013236
H 4.423061 4.556237 -3.148664
H 4.319685 3.106670 -3.690672
H 3.069376 3.801092 -3.091499
H 0.296717 6.985157 -1.337002
H 0.487147 5.499779 -1.744246
H -0.927475 6.033830 -1.398611
C -1.405182 -3.068392 0.826787
H -4.159342 5.688176 1.329071
C -0.099377 -5.668582 -0.208727
H -3.023291 5.482652 0.291938
C -1.252838 -5.933272 -1.101445
H -3.859007 4.269749 0.779170
C 2.555760 -4.687672 -1.814365
C 2.490470 -4.454122 -3.332530
C -4.005910 -3.161812 2.434981
C -4.974382 -3.628912 1.423841
C 2.642813 -1.620382 -1.385884
C 2.744013 -0.250222 -1.249507
C 3.868094 0.497138 -1.682189
C 3.600404 1.820588 -1.367552
C 2.261954 1.836158 -0.819469
C 1.602522 2.941628 -0.371520
C 0.371801 2.988338 0.225908
C -0.295248 4.187228 0.710812
C -1.437827 3.782408 1.272197
C -1.481354 2.365538 1.206596
C -2.499881 1.587038 1.709432
C -2.560819 0.201308 1.646294
C -3.581523 -0.639472 2.221195
C -3.276835 -1.900642 2.003836
C -2.029792 -1.931782 1.253409
C 5.145606 -0.032242 -2.334414
C 4.938854 -0.141232 -3.842823
C 4.460059 3.003908 -1.632648
C 4.100962 3.829118 -2.883737
C 0.248838 5.572958 0.439093
C 0.031204 6.024488 -0.985769
C -2.460707 4.716608 1.949916
C -3.440061 5.230418 1.042825
H -4.621814 -3.264574 3.305266
C -4.767629 -0.094522 2.952752
N 0.468648 -1.947352 -0.273687
N 1.775541 0.543848 -0.730173
N -0.386654 1.867298 0.540247
N -1.660902 -0.623902 1.036196
H 6.140194 0.163940 -2.299788
H -3.046143 4.495514 2.754385