13
H8 C4 O1
H 1.849646 -0.023037 0.790535
H 0.667408 1.721113 0.784795
C 0.474920 -1.214464 0.000949
C 1.280370 -0.027131 -0.004014
O -1.163284 -0.791391 0.053088
H 0.693347 1.726572 -0.798571
C 0.461268 1.187496 -0.012251
H -1.372155 1.244816 -0.867991
C -0.972161 0.900899 -0.039201
H -1.418571 1.334889 0.720645
H 0.704268 -1.761729 0.779532
H 0.659217 -1.738528 -0.806501
H 1.853741 -0.032590 -0.795478