11
P1 H6 C4
P -0.003178 -0.204451 -0.004159
C 2.812747 0.357545 0.134063
H -3.013851 1.196027 0.332257
H -2.493980 0.585605 -0.996384
C -1.772291 -0.223763 0.564806
H -3.545250 -0.179122 -0.151747
C 1.760978 -0.225704 -0.571766
C -2.793994 0.347841 -0.114129
H 3.554839 -0.162624 0.127298
H 2.505892 0.581723 0.995099
H 3.001360 1.211554 -0.333333