15
H8 C7
C -0.095262 -0.961889 0.747349
H 1.570655 -0.824135 1.866305
C -2.108707 -0.950115 -0.777439
C -0.295180 0.782989 -0.893022
H -2.825954 -0.289605 -0.664562
C 1.089188 -0.407343 1.160712
C 0.901356 1.304568 -0.433342
H 2.410746 1.099704 0.903389
H -2.029453 -1.186768 -1.725171
H -0.757230 1.206845 -1.605187
H -2.320711 -1.753088 -0.257829
C 1.595422 0.724120 0.593857
H 1.251064 2.087526 -0.844462
H -0.423769 -1.746024 1.168742
C -0.824596 -0.374376 -0.300872