78
Fe1 H20 C44 N4 Cl1 F8
C 4.881021 2.780264 1.103919
C 6.055068 3.466733 1.278549
C 6.614787 4.090424 0.175683
H -2.302502 -4.608493 -0.326567
H 0.093371 -5.174864 -0.299241
C 6.035955 4.005809 -1.078049
C 4.840066 3.268844 -1.210465
C 4.225740 2.657436 -0.134010
H -6.469001 -3.542623 2.120759
H -7.424620 -4.570280 0.252002
H -6.425316 -4.413334 -1.819191
Fe -0.000007 0.000268 0.176527
H -4.619196 2.297142 -0.295805
H -5.173455 -0.096629 -0.332967
H 2.306311 4.634959 -0.306292
H -0.110040 5.164482 -0.330988
F 4.304920 2.164761 2.178278
F 4.220279 3.200607 -2.425685
C -1.591249 -3.992991 -0.302538
H -3.532521 6.465089 2.111351
C -0.275225 -4.310977 -0.296746
H -4.585067 7.402672 0.271585
H -4.419881 6.417322 -1.850075
C -2.550963 1.715759 -0.276524
C -4.003504 1.586107 -0.292925
C -4.310667 0.275947 -0.308879
C -3.049250 -0.456923 -0.279358
C -2.934576 -1.857157 -0.242367
C -6.062180 -3.479845 1.276451
C -1.723670 -2.540897 -0.270922
C -6.623265 -4.087158 0.157313
C -6.033512 -3.998450 -1.072212
C 0.455141 -3.060866 -0.280626
C 1.858535 -2.947592 -0.237854
C 2.784121 -4.875984 1.092543
C 2.553407 -1.727506 -0.274528
C 3.289233 -4.832312 -1.197877
C 3.051694 0.457459 -0.282250
C 2.648969 -4.205892 -0.124070
C 2.937020 1.857693 -0.247989
C 1.716558 2.561904 -0.264300
C 1.599153 4.016727 -0.296013
H 3.530868 -6.479565 2.119391
C 0.269478 4.304689 -0.307089
C -0.460888 3.049119 -0.275707
H 4.605257 -7.395312 0.251427
C -1.869744 2.926292 -0.249868
H 4.384100 -6.429069 -1.838716
C -4.877213 -2.775634 1.097465
C -4.848544 -3.286050 -1.198419
C -4.211010 -2.656900 -0.118835
H 4.624370 -2.302065 -0.315942
H 5.170438 0.105354 -0.310451
H 6.465984 3.513134 2.123177
C -2.773486 4.879249 1.093009
H 7.409316 4.581734 0.281552
F 3.212784 -4.218174 -2.422120
C -3.475183 6.054299 1.266906
H 6.427759 4.427517 -1.819444
F 2.164333 -4.304154 2.172691
C -4.092240 6.608387 0.166219
C -4.008965 6.028369 -1.100449
C -3.281329 4.834212 -1.195167
C -2.667003 4.213251 -0.126148
N -1.993974 0.452000 -0.271556
N -0.449967 -1.985443 -0.260660
N 1.989592 -0.448735 -0.264721
N 0.452410 1.994168 -0.265849
Cl 0.001085 0.000950 2.409088
F -4.220566 -3.220542 -2.426346
F -4.299746 -2.156037 2.168317
F -2.153699 4.310148 2.174961
C 3.480357 -6.063316 1.277543
F -3.213071 4.222804 -2.419618
C 4.005948 -1.593760 -0.300350
C 4.098779 -6.607852 0.156226
C 3.992296 -6.027833 -1.084126
C 4.309015 -0.269953 -0.300231