15
H8 C7
C -0.386335 -0.603326 -1.486167
H 2.366871 -1.104346 0.231105
H 1.258207 0.380384 1.732876
C 0.893574 -1.067686 -1.156182
C -0.412908 0.533134 0.588028
H -2.112071 1.606050 1.093108
C 1.509170 -0.749966 0.022338
C 0.844857 0.105434 0.921381
H -0.773113 2.263486 1.672266
C -1.242560 1.425194 1.514008
H -1.387233 0.959612 2.365910
H -1.920159 0.480588 -0.772321
H -0.787875 -0.825730 -2.317866
C -1.037361 0.178754 -0.590492
H 1.348259 -1.633472 -1.775746