125
Fe1 H60 C50 N4 O10
H -5.783518 3.325484 0.297308
H -5.014407 2.880334 4.566440
H -3.801758 3.783537 4.043761
H -0.758341 -3.790465 -2.777883
H 0.562832 -3.464022 -3.616541
N 1.845785 0.181048 -0.307343
N 0.437792 -1.203433 1.628807
C -4.679395 -4.294968 -1.845581
H -0.616787 -2.386629 -3.532640
N -1.909649 -0.082171 0.716999
N -0.502128 1.324245 -1.184930
C 2.253934 1.787459 -3.722722
C 1.773121 1.486821 -5.119992
H -2.303642 3.460965 -2.753372
O -0.448337 -1.647293 -1.122185
H -0.181272 2.971945 -3.909944
C 1.817946 2.624857 -6.104118
O 0.420334 1.676494 1.646090
C 0.630306 0.516523 -5.338714
O 3.364663 2.093258 2.431683
C 3.123549 0.952641 -4.664345
O 5.546958 2.364218 2.006601
C 3.337767 -0.502806 -4.523921
O -2.559855 -3.436925 -0.580527
C 4.814179 -2.233085 -5.125728
O -4.543974 -4.440771 -0.413306
O -3.150609 3.239035 2.131491
O -5.269204 3.511286 2.616674
H -4.542559 4.884155 -2.501348
H -5.547594 -4.653669 -2.128435
H -3.962186 -4.786569 -2.293396
H -5.821266 4.490616 -1.627177
H -4.627491 -3.346605 -2.083200
H 2.583755 2.725500 -3.620445
H 1.072427 3.240325 -5.924564
H 1.733014 2.272608 -7.015478
H 2.667272 3.103555 -6.014224
C 0.496773 -2.489853 -1.816667
H 0.667110 -0.189265 -4.660263
H 0.706274 0.117824 -6.231212
C 2.345472 0.637810 -1.500470
H -0.222323 0.995221 -5.266947
C 2.925373 -0.168621 0.474297
H 3.907287 1.446822 -5.041494
C 1.683942 -1.341494 2.203123
H 5.715407 -2.363404 -5.483879
C -0.381335 -2.110507 2.222315
H 4.167747 -2.714363 -5.683152
C -2.469261 -1.166015 1.382230
H 4.776431 -2.576302 -4.208102
C -2.932615 0.742324 0.359834
C -1.691184 2.032614 -1.291106
C 0.256603 1.663591 -2.283044
C 3.750162 0.525555 -1.464479
C 4.116316 0.082986 -0.246442
C 1.589100 -2.350501 3.234696
C 0.343895 -2.845973 3.216383
C -3.885747 -0.995697 1.405150
O 2.621975 -1.301495 -3.994305
C -4.146207 0.204273 0.833445
O 4.496625 -0.825378 -5.127109
C 2.832891 -0.747961 1.735121
C -1.750165 -2.189215 1.990399
C -2.807575 1.846812 -0.493904
C 4.086590 -0.888603 2.554415
C 4.221066 -0.458936 3.964950
C 5.083132 -1.351817 4.832048
C 3.098541 0.183628 4.738348
C 4.949127 0.337173 2.889923
C 4.497097 1.655849 2.445419
C 5.252997 3.663540 1.441952
Fe -0.026034 0.084276 0.235084
C -2.509368 -3.380153 2.506488
H -1.121664 -2.052444 -0.991572
C -2.084233 -4.807213 2.201576
H 0.799227 -3.214996 -1.214855
C -2.358848 -5.826543 3.290507
C -2.839189 4.983507 -0.224743
H 1.288533 -1.955673 -2.077340
C -0.897065 -5.102690 1.343317
C -4.943629 4.917702 -1.607890
C -3.358222 -4.221422 1.550234
C -3.402575 -3.963364 0.117139
H -0.291212 2.002937 1.746109
C -4.013618 2.694533 -0.733162
H 1.034679 2.201642 1.702087
C -4.050894 4.189979 -0.628605
H 4.340915 0.728131 -2.180187
H 5.004333 -0.038302 0.068015
C -4.792638 3.344839 0.397631
H 2.286963 -2.615011 3.822376
H 0.006524 -3.549181 3.758654
C -4.297198 3.329355 1.801211
H -4.523685 -1.607294 1.755286
C -4.773764 3.673863 4.044850
H -5.001195 0.612005 0.763411
C -0.135503 -3.084676 -3.042721
H 4.620249 -1.704066 2.331147
H 4.535788 -2.070508 5.208753
H 5.474765 -0.824088 5.558992
H 5.800340 -1.740194 4.287219
H 3.470357 0.797806 5.404995
H 2.573846 -0.509257 5.190015
H 2.520999 0.681680 4.121477
H 5.936704 0.188789 2.844467
H 6.092885 4.102239 1.180534
H 4.790586 4.213204 2.106938
H 4.682061 3.555156 0.652063
H -2.910910 -3.253704 3.413670
H -3.123241 -5.532356 3.827761
H -1.568975 -5.911702 3.864948
H -2.560799 -6.693617 2.882052
C -1.635978 2.849367 -2.463769
H -0.845633 -4.444642 0.619320
C -0.470042 2.597761 -3.085634
H -0.984356 -6.002022 0.963791
H -3.103424 5.704779 0.380510
H -0.082656 -5.054949 1.887263
H -2.419245 5.368014 -1.023622
H -4.216512 -4.556897 1.939737
C 1.587685 1.268762 -2.493070
H -5.037999 5.853163 -1.329264
H -4.603427 2.338413 -1.459128
H -5.188990 4.466101 4.445497
H -2.197476 4.395135 0.228077