98
Cu1 H27 C56 S2 N4 Cl8
H -3.156361 0.632916 -5.588856
C -2.388711 -3.746732 -0.224907
C -1.557582 -3.739400 0.798722
C 1.616356 -0.122280 2.458752
H -4.523368 -6.046536 -4.279015
H -3.131264 4.793826 -6.764009
C 2.076946 1.038620 1.920000
C 2.915456 3.152680 0.249869
H -6.672788 -5.349996 -4.107288
H -7.291337 -3.575652 -2.841221
C 5.178547 3.751460 0.664034
C 4.809484 4.851260 1.270130
C 3.503003 5.193420 1.354310
C 2.543441 4.386900 0.845863
C 0.268539 -2.798460 2.856081
C -0.623116 -2.783796 3.903281
C -0.342628 -3.433900 5.054863
C 0.811799 -4.240420 5.155879
C 1.660643 -4.325960 4.108680
C -1.582678 3.824780 -7.767435
C 1.411157 -3.568320 2.930160
C -2.246991 3.384860 -5.474371
C 4.236699 2.761640 0.169056
C -1.210663 2.443920 -5.373355
C -0.463681 2.223960 -6.487899
C 3.674248 -0.012300 5.926968
C -2.962972 -2.297440 -2.218289
C -0.618687 2.871620 -7.696723
C 5.008778 0.280980 6.364704
C 6.018533 0.452060 5.398317
C 5.766094 0.366520 4.061539
C 4.551141 -0.024520 3.603600
C 3.454287 -0.134500 4.556517
C -2.743011 -1.173200 -3.012948
C 0.848706 0.549820 5.038027
C -0.155144 1.307460 4.344384
C -0.971511 2.077320 5.176082
C -0.736787 2.175080 6.543165
C 0.311351 1.527420 7.088652
C 1.105573 0.635360 6.327665
C -3.368941 -0.966682 -4.262179
Cl 0.885612 4.824376 0.908156
C -2.883254 0.199106 -4.790830
S 1.827459 -0.636742 4.108006
C -3.987489 -3.226160 -2.659392
S 2.401721 -0.293360 7.094713
N -1.743589 -0.260366 -2.763775
C -3.773433 -4.435940 -3.289059
N -1.275618 -1.767092 -0.494283
C -4.740377 -5.242460 -3.827811
N 0.696652 0.069574 0.387924
C -5.993713 -4.839200 -3.686388
N 0.250824 1.589742 -1.952280
C -6.371633 -3.757730 -2.989378
C -5.382546 -2.903552 -2.491032
Cl -2.084603 -4.910076 -3.517018
Cl -2.007838 -1.725544 3.848058
Cl 2.552298 -3.570764 1.659378
Cl 4.719433 1.311126 -0.531322
C -2.452189 4.130280 -6.689931
Cl 0.861992 1.088722 -6.351190
H 2.218666 4.127836 -2.258695
H 0.701081 3.896878 -4.161163
H 6.107108 3.581602 0.546182
Cu -0.525536 -0.107616 -1.209813
H 5.467892 5.419490 1.650624
H 3.257946 6.001162 1.781945
H -1.439482 -4.398058 1.472162
H 2.665969 1.653286 2.337533
H -1.678634 4.312358 -8.578930
H -0.927223 -3.353248 5.799014
H 0.991902 -4.718222 5.957273
H 2.423864 -4.890524 4.155821
Cl -3.312843 3.673252 -4.167898
H 5.206596 0.355522 7.290684
H 6.904283 0.626806 5.687897
H -0.078379 2.651660 -8.447609
H 6.451074 0.586480 3.441974
H 4.419754 -0.233482 2.687721
H -0.257006 1.279354 3.401568
Cl -5.834278 -1.470146 -1.666068
H -1.703731 2.555122 4.795589
H -1.312524 2.696874 7.088652
H 0.523931 1.677726 8.001163
C 0.039721 -1.978498 1.590014
C 1.848127 2.175080 -0.255211
C -1.055657 1.710720 -4.083718
C 1.545496 3.470400 -2.366446
C 0.726177 3.323760 -3.400176
C -1.857261 0.623140 -3.858115
C -2.269134 -2.590720 -1.022933
C -0.851934 -2.444080 0.640464
C 0.705509 -0.794380 1.455326
C 1.521876 1.157154 0.623628
H -2.998402 -4.451826 -0.400001
H -4.015538 -1.534912 -4.662876
C 1.217768 2.419480 -1.437099
C -0.104952 2.199520 -3.191410