14
H7 C6 N1
H -1.790643 -1.206509 -0.023865
H -0.998279 0.804078 2.557702
H 2.278144 0.885041 -0.614905
H 1.756014 -0.926993 -1.944931
H -0.320382 -1.991082 -1.659086
C -1.452196 0.850343 1.725179
C -0.569639 0.300949 0.642271
N 0.616725 0.929379 0.463507
C 1.441453 0.453237 -0.489309
C 1.139985 -0.622417 -1.288317
H -1.667210 1.754433 1.529586
C -0.946017 -0.788199 -0.150589
H -2.251491 0.337576 1.772035
C -0.081558 -1.248918 -1.115430