129
Fe1 H62 C52 N4 O10
C 0.570936 2.597433 0.936094
C -0.570936 2.597433 -0.936094
C 1.185753 0.861993 2.545627
C -1.185753 0.861993 -2.545627
C 0.363323 3.958689 0.580293
C -0.363323 3.958689 -0.580293
C 1.500003 0.442649 3.871475
C -1.500003 0.442649 -3.871475
C 1.194718 2.175509 2.120886
C -1.194718 2.175509 -2.120886
C 0.698806 -1.264404 2.705478
C -0.698806 -1.264404 -2.705478
C 0.067002 -3.001135 1.104970
C -1.669397 3.261933 -3.033875
C 1.669397 3.261933 3.033875
C -0.067002 -3.001135 -1.104970
C 2.711236 4.273520 2.675343
C -2.711236 4.273520 -2.675343
C 2.505511 5.691549 3.128207
C -2.505511 5.691549 -3.128207
C 1.189528 -0.866995 3.966195
C -1.189528 -0.866995 -3.966195
C 3.491672 4.157394 1.372201
C -3.491672 4.157394 -1.372201
C 0.015099 -4.370133 0.670320
C -0.015099 -4.370133 -0.670320
C 3.004254 3.258062 3.781208
C -3.004254 3.258062 -3.781208
C 4.049396 2.246475 3.588950
C -4.049396 2.246475 -3.588950
C 5.799007 1.121342 4.668087
C -5.799007 1.121342 -4.668087
C 0.286411 -2.572759 2.396599
C -0.286411 -2.572759 -2.396599
C -1.826050 -0.030887 6.015511
C 1.826050 -0.030887 -6.015511
C 0.169393 -3.562411 3.533514
C -0.169393 -3.562411 -3.533514
C -1.048445 -4.401099 3.815010
C 1.048445 -4.401099 -3.815010
C -2.292707 -4.350778 2.941209
C 3.019825 0.601355 -0.899355
C -3.019825 0.601355 0.899355
C 2.292707 -4.350778 -2.941209
C -0.773830 -5.766226 4.435445
C 4.256065 0.543292 0.028771
C -4.256065 0.543292 -0.028771
C 0.773830 -5.766226 -4.435445
C -0.727117 -3.247580 4.738223
C 0.727117 -3.247580 -4.738223
C -1.489623 -1.958581 4.756002
C 1.489623 -1.958581 -4.756002
N -0.000000 1.779390 -0.000000
N 0.716265 -0.221850 1.838294
N -0.716265 -0.221850 -1.838294
H 0.665305 4.721251 1.057824
H -0.665305 4.721251 -1.057824
H 1.861911 0.984571 4.562629
H -1.861911 0.984571 -4.562629
N -0.000000 -2.188252 -0.000000
H 0.927652 3.654181 3.579138
H -0.927652 3.654181 -3.579138
H 1.962886 6.168956 2.468572
H -1.962886 6.168956 -2.468572
H 3.373710 6.134118 3.218399
H -3.373710 6.134118 -3.218399
H 2.047818 5.694129 3.993445
H -2.047818 5.694129 -3.993445
H 4.435367 4.383195 1.533268
H -4.435367 4.383195 -1.533268
H 1.283425 -1.416659 4.735659
H -1.283425 -1.416659 -4.735659
H 3.118912 4.774153 0.709775
H -3.118912 4.774153 -0.709775
H 0.004718 -5.136565 1.230518
H -0.004718 -5.136565 -1.230518
O 4.289566 1.618103 2.589180
H 3.430332 3.238708 1.034417
H 2.959428 3.633536 4.706579
H -2.959428 3.633536 -4.706579
O 4.701489 2.076156 4.741394
O -4.701489 2.076156 -4.741394
H 6.058523 0.850381 5.573315
O -4.289566 1.618103 -2.589180
H -3.430332 3.238708 -1.034417
H -6.058523 0.850381 -5.573315
H 6.563400 1.538105 4.221015
H -6.563400 1.538105 -4.221015
H 5.511180 0.334265 4.160035
H -5.511180 0.334265 -4.160035
O 1.968548 -0.290236 -0.931762
O -1.968548 -0.290236 0.931762
O -2.120011 -1.478593 3.839877
O 2.120011 -1.478593 -3.839877
O -1.325892 -1.370208 5.938672
O 1.325892 -1.370208 -5.938672
H 1.032403 -4.006271 3.776046
H -1.032403 -4.006271 -3.776046
H -3.084468 -4.531419 3.488827
H -1.467446 0.406521 6.816404
H 3.084468 -4.531419 -3.488827
H 1.467446 0.406521 -6.816404
H -2.223346 -5.025600 2.234028
H -2.807493 -0.050242 6.064275
H 2.223346 -5.025600 -2.234028
H 2.807493 -0.050242 -6.064275
H -2.371978 -3.461768 2.536053
H -1.547660 0.468455 5.218502
H 2.371978 -3.461768 -2.536053
H 1.547660 0.468455 -5.218502
H -0.618120 -6.422984 3.725319
H 0.618120 -6.422984 -3.725319
H -1.547660 -6.042348 4.971184
H 1.547660 -6.042348 -4.971184
H 0.018874 -5.710744 5.010886
H -0.018874 -5.710744 -5.010886
H -0.345392 -3.515961 5.622215
H 0.345392 -3.515961 -5.622215
H 2.609317 1.489074 -0.741169
H -2.609317 1.489074 0.741169
H 3.378429 0.624580 -1.821493
H -3.378429 0.624580 1.821493
H 4.100355 1.111019 0.812682
H -4.100355 1.111019 -0.812682
H 5.044051 0.863284 -0.458238
H -5.044051 0.863284 0.458238
H 4.402338 -0.380556 0.318702
H -4.402338 -0.380556 -0.318702
Fe -0.000000 -0.211399 -0.000000