111
Fe1 H46 C58 N6
C -2.983485 3.144367 0.022734
C -3.894110 3.118795 1.036595
C -5.071245 3.810353 0.948901
C -5.343246 4.531929 -0.128219
C -4.479222 4.586409 -1.153236
C -3.292639 3.889292 -1.071399
H 4.200497 4.138342 4.973008
H 2.881315 5.958405 5.286895
H 0.808083 5.980641 4.333869
H 1.413096 -2.068996 -0.150334
H 2.057895 -1.182869 -0.861879
H 0.537784 0.709463 -5.131756
C 3.008872 3.129914 3.759505
C 3.406365 4.171697 4.572755
C 2.598377 5.244611 4.763717
C 1.370818 5.271295 4.183753
H 3.405347 2.344963 -4.156375
Fe 0.056324 -0.084716 -0.127338
H -1.955984 0.951842 -0.879069
H -2.154816 0.697233 0.320451
H -2.553859 -4.181470 1.334105
H -2.589527 -4.303771 -1.080461
H -0.577137 -1.435254 -4.987191
H -1.048717 2.868634 -0.474498
H -0.518386 -0.825972 4.845538
H -0.297728 -4.441637 -3.610455
H -1.274381 -5.982632 -4.983877
H -3.456618 -5.715793 -5.568471
H 2.352668 -1.089475 1.705014
H -4.642318 -3.861263 -4.939804
H 3.351965 -0.554686 0.625363
H 4.694437 -2.258007 -0.606313
H -3.659428 -2.291361 -3.546972
H 5.814312 -4.169240 -0.465661
H 5.361539 -5.637965 1.119536
H 3.783561 -5.248825 2.649699
H 2.606494 -3.313132 2.527335
C 0.538289 0.718358 -3.022947
C 1.552607 2.234892 -1.378248
C 1.637690 2.317167 0.811179
C 0.637929 1.016328 2.634626
H -3.598782 -2.558200 3.437847
H -4.115975 -3.856816 5.252420
H -0.322466 -4.937513 5.845359
H 0.262328 -3.561069 4.014707
C 0.300382 0.271403 -4.359265
H -1.338002 2.548427 1.026622
H -3.717198 2.634038 1.777989
C 0.408852 0.755048 4.021461
C 1.215985 1.890225 -2.675299
C 1.360984 2.097025 2.157960
C -1.465662 -2.405880 1.120703
C -1.494828 -2.514839 -1.075753
C 1.523668 2.857516 -3.772185
C -0.543454 -1.186204 -2.897522
C -0.470378 -0.860438 2.755361
C -2.180494 -3.584418 0.759945
C -2.198196 -3.653351 -0.578591
C -0.332130 -0.903800 -4.278831
H 2.692219 4.046060 -1.635672
C -0.255065 -0.406812 4.091347
H 2.775153 4.090533 0.810650
C -1.260123 -2.275796 -2.416540
C -1.176543 -2.017852 2.424116
C -1.859580 -3.223074 -3.405153
C -1.155593 -4.327119 -3.858793
C -1.755572 -5.253272 -4.687155
H -0.225231 3.745866 -3.767942
C -3.063737 -5.098728 -5.065684
C -3.762750 -3.988011 -4.658250
H 0.174697 5.224598 -5.394869
C -3.161111 -3.062970 -3.831707
H 2.147021 5.346899 -6.528834
C 2.741662 -1.278486 0.837144
H 3.673783 3.884845 -5.761770
C 3.526030 -2.564871 0.928232
C 4.507914 -2.841716 0.025894
C 5.214106 -4.008024 0.084863
C 4.929994 -4.904158 1.072221
C 3.970704 -4.633984 1.969670
C 3.268860 -3.482130 1.904634
H 0.183920 4.255084 2.999009
N 1.179929 1.548894 -0.236557
N 1.696258 -1.300722 -0.141846
C -1.605777 -2.900643 3.550344
C -2.932043 -3.014050 3.923827
C -3.281817 -3.802336 5.009952
C -2.324589 -4.492782 5.699182
C -1.033404 -4.410506 5.333836
C -0.670104 -3.616661 4.266100
C -1.673220 2.430574 0.124223
H 0.650424 1.266489 4.704148
N -1.053155 -1.736559 -0.024459
N 0.020497 -0.196677 -2.118713
N 0.080742 0.024577 1.863109
N -1.655589 1.033005 -0.170498
H 3.575064 2.400554 3.637946
C 2.302795 3.408982 -1.023892
C 2.357523 3.452344 0.311347
H -5.705161 3.772550 1.675633
H -6.149243 5.013351 -0.176751
H -4.697267 5.135652 -1.988799
H -2.743214 3.925983 -1.722512
C 0.578067 3.752537 -4.173104
C 0.811121 4.659789 -5.166297
C 1.989501 4.707598 -5.798594
C 2.943246 3.854826 -5.401097
C 2.724625 2.928673 -4.402832
C 1.793822 3.154374 3.123483
C 0.967582 4.229512 3.363019
H -2.580175 -5.048696 6.457539