102
Gd1 H56 C40 N4 O1
Gd 0.389541 0.048742 0.118013
H -1.076536 1.186875 -4.949428
H -0.337796 -1.215723 -5.159738
H 1.131008 -2.829969 1.841931
H -4.045131 -1.427909 2.815608
H -3.854249 1.061196 3.255790
O 2.477102 0.018220 1.371927
H 1.597059 2.660752 1.799904
H 2.557669 -2.594932 -0.207046
H 0.428213 -3.319629 -4.374296
H -0.657586 -3.353905 -3.200418
H 1.815210 -4.844104 -3.147524
H 2.053194 2.930065 -0.699512
H 0.373675 -5.496984 -3.381781
H 2.940674 -1.405059 -2.597453
H 0.744285 -4.868587 -1.958899
H -3.057252 -2.674910 -0.161611
H 2.939434 -2.999718 -2.522877
H -3.663366 -3.365331 1.140821
H 2.307291 -2.849556 -4.936210
H -1.605801 -4.698838 -0.327581
H 3.843027 -2.673278 -4.523533
H -3.140299 -4.865323 -0.751632
H 2.944392 -1.385472 -4.830087
H -2.649458 -5.364776 0.687566
H -0.969939 -4.343019 2.360866
H -0.754267 -3.025833 3.234933
H -2.925866 -3.117236 4.031992
H -2.301159 -4.579688 4.215738
H -3.305152 -4.284259 3.004735
H -2.906034 3.235286 1.556697
H -2.944458 3.267930 3.153001
H -1.387650 4.952360 3.230120
H -2.478407 5.394687 2.144892
H -1.069099 4.803830 1.668155
H 0.077436 1.547591 3.785489
H 0.092310 3.135722 3.639975
H -1.862377 3.271194 4.943090
H -0.683616 2.549762 5.748966
H -1.858659 1.678167 5.100830
H -1.967734 3.168366 -3.577152
H -2.384205 2.538337 -2.170773
H -1.934268 4.560632 -1.076287
H -2.899836 4.880544 -2.310326
H -1.334351 5.195558 -2.416653
H 1.640441 3.076963 -3.074206
H 0.870714 4.364768 -2.529894
H 0.336490 3.191217 -5.126221
H 1.201659 4.521460 -4.916614
H -0.363825 4.524724 -4.584566
H 4.081011 -0.326174 0.174908
H 3.988049 1.191772 0.691617
H 5.358932 -0.819099 1.831499
H 5.282083 0.705376 2.335781
H 4.007880 -1.455657 3.349195
H 4.126872 0.011691 3.988586
H 2.196975 0.563375 3.317152
H 1.961471 -1.005170 3.058449
C -0.264666 1.201565 -3.052177
C -0.620401 0.693951 -4.277478
C -0.226241 -0.642821 -4.411475
C 0.388549 -0.939882 -3.143571
C 1.008298 -2.208101 -2.715697
C 0.748003 -2.320723 -1.193972
C 1.609454 -2.541070 -0.164738
C 0.813697 -2.671646 0.959260
C -0.518762 -2.536173 0.602163
C -1.755780 -2.635737 1.441397
C -2.211915 -1.223884 1.907075
C -3.322505 -0.863168 2.570324
C -3.208471 0.512776 2.826342
C -2.008638 0.907769 2.346379
C -1.307083 2.236380 2.414081
C -0.403489 2.371852 1.214732
C 0.963676 2.601992 1.093102
C 1.219012 2.730936 -0.290583
C 0.022898 2.512221 -0.930455
C -0.295653 2.631372 -2.417967
C 0.312940 -3.396343 -3.393281
C 0.862037 -4.780448 -2.926546
C -2.846538 -3.286985 0.588660
C -2.531706 -4.682516 -0.004703
C -1.411200 -3.515493 2.678774
C -2.591201 -3.908853 3.561371
C -2.350739 3.354437 2.366087
C 2.545274 -2.221159 -2.991553
C -1.770654 4.748335 2.352101
C -0.501410 2.347369 3.713614
C 2.945632 -2.288079 -4.448708
C -1.295927 2.473049 4.986499
C -1.757020 3.166734 -2.610190
C -2.003680 4.578587 -2.053254
C 0.770314 3.550301 -3.082571
C 0.456722 3.989362 -4.568177
C 3.864099 0.245096 0.953200
C 4.742902 -0.082977 2.078264
C 3.883931 -0.495923 3.168366
N 0.351364 0.179808 -2.335118
C 2.529161 -0.228242 2.824135
N -0.550989 -2.244009 -0.736332
N -1.339309 -0.162954 1.782090
N -0.967460 2.260863 -0.047741