16
H10 C4 O2
H -0.612936 -2.118071 -1.740880
C 0.079483 0.326889 1.227021
H 0.897984 0.088083 1.692646
H 0.885583 -2.164605 -2.196372
H -0.596401 0.519583 1.895961
H -0.424846 -1.620999 0.956127
C -0.856833 2.180015 0.085411
H -1.365296 1.636409 -0.520909
H 0.428793 -2.955690 -0.923424
C 0.296510 -2.156145 -1.438496
O 0.575338 -1.028320 -0.638860
C -0.364905 -0.823569 0.404437
H -1.241280 -0.645892 0.031710
H -0.627404 3.007059 -0.341291
O 0.313665 1.502728 0.447152
H -1.377697 2.357692 0.872365