178
Pr2 H96 C72 N8
Pr 0.064963 -1.356668 1.720789
Pr -0.064963 1.356668 -1.720789
H 0.582872 1.144323 3.855436
H -0.582872 -1.144323 -3.855436
H -5.644765 1.049139 2.963742
H -2.755208 -2.838598 6.121779
H 2.755208 2.838598 -6.121779
H -3.083848 -0.329971 6.098197
H 3.083848 0.329971 -6.098197
H -1.860230 1.182397 0.745892
H 1.860230 -1.182397 -0.745892
C -1.934226 -2.594927 4.238215
H 4.822130 0.511878 3.394964
C 1.934226 2.594927 -4.238215
H -4.822130 -0.511878 -3.394964
C -2.522472 -2.256284 5.436213
H 5.076362 -1.979827 3.490313
C 2.522472 2.256284 -5.436213
H -5.076362 1.979827 -3.490313
C -2.707255 -0.847984 5.425117
H 1.072733 -4.162714 -0.077814
H -1.072733 4.162714 0.077814
C 2.707255 0.847984 -5.425117
C -2.216361 -0.404215 4.214821
H -1.314563 -4.399616 0.763531
H 1.314563 4.399616 -0.763531
C 2.216361 0.404215 -4.214821
C -2.296764 0.974684 3.582990
H -3.592311 1.924832 2.273364
C 2.296764 -0.974684 -3.582990
H 3.592311 -1.924832 -2.273364
H -3.596445 0.372275 2.087398
C -1.106010 1.129305 2.654601
C 1.106010 -1.129305 -2.654601
H 3.596445 -0.372275 -2.087398
H -4.921342 0.143834 4.018815
C -1.096089 1.203549 1.276072
C 1.096089 -1.203549 -1.276072
H 4.921342 -0.143834 -4.018815
C 0.200905 1.314597 0.776698
C -0.200905 -1.314597 -0.776698
H 5.644765 -1.049139 -2.963742
H -4.925476 1.702736 4.193191
C 1.020233 1.336595 1.890256
C -1.020233 -1.336595 -1.890256
H 4.925476 -1.702736 -4.193191
H -2.529913 6.119274 -2.623162
H -2.968101 1.937523 5.281800
C 2.533840 1.444047 1.791383
C -2.533840 -1.444047 -1.791383
H 2.968101 -1.937523 -5.281800
H -3.834141 6.453475 -3.424713
H -1.409641 1.971366 5.159094
C 3.104518 0.137911 2.295635
C -3.104518 -0.137911 -2.295635
H 1.409641 -1.971366 -5.159094
H -3.916818 6.142541 -1.890408
H -1.678341 3.604301 3.402472
C 4.251866 -0.118663 3.017411
C -4.251866 0.118663 -3.017411
C -3.466229 5.927425 -2.710360
H 1.678341 -3.604301 -3.402472
H -2.097926 4.120410 4.821755
C 4.391590 -1.510676 3.070168
C -4.391590 1.510676 -3.070168
H 2.097926 -4.120410 -4.821755
H -3.195462 3.674102 3.794009
C 3.330225 -2.055128 2.385395
C -3.330225 2.055128 -2.385395
H 3.195462 -3.674102 -3.794009
C 3.046644 -3.481196 1.978031
H 2.697334 2.476899 3.577520
C -3.046644 3.481196 -1.978031
H -2.697334 -2.476899 -3.577520
C 1.543991 -3.696312 1.898884
H 3.968491 2.641885 2.682507
C -1.543991 3.696312 -1.898884
H -3.968491 -2.641885 -2.682507
C 1.002457 6.356388 -4.312077
C 0.773649 -4.040878 0.794725
H 2.906093 4.196557 1.387695
C -0.773649 4.040878 -0.794725
H -2.906093 -4.196557 -1.387695
C -0.566543 -4.171597 1.266196
H 2.784145 4.632288 2.888445
C 0.566543 4.171597 -1.266196
H -2.784145 -4.632288 -2.888445
C -0.530579 -3.890064 2.628382
H 1.564660 3.968115 2.163720
C 0.530579 3.890064 -2.628382
H -1.564660 -3.968115 -2.163720
H 1.810624 6.726336 -3.950001
C -1.664699 -3.964308 3.639644
H 2.618791 0.907421 -0.199478
C 1.664699 3.964308 -3.639644
H -2.618791 -0.907421 0.199478
H 0.711021 6.887091 -5.055375
C -3.598099 1.079175 2.749666
H 2.517512 2.457862 -0.006706
C 3.598099 -1.079175 -2.749666
H -2.517512 -2.457862 0.006706
H 0.320373 6.354061 -3.634427
C -4.893646 0.985683 3.555823
H 4.774591 2.589005 0.503933
C 4.893646 -0.985683 -3.555823
H -4.774591 -2.589005 -0.503933
H -5.384333 2.646115 -0.759831
C -2.235377 2.071204 4.661932
H 4.631973 1.812726 -0.851751
C 2.235377 -2.071204 -4.661932
H -4.631973 -1.812726 0.851751
H -5.440140 3.667757 0.430301
C -2.308752 3.501079 4.118778
H 4.904807 1.025872 0.476617
C 2.308752 -3.501079 -4.118778
H -4.904807 -1.025872 -0.476617
H 3.987093 5.298576 -4.448102
H -5.595159 4.173290 -1.045139
C 2.998071 2.631520 2.668808
H 4.605103 -4.281165 3.089703
C -2.998071 -2.631520 -2.668808
H -4.605103 4.281165 -3.089703
C 2.521025 3.976999 2.238178
H 3.257470 -4.274819 3.882627
C -2.521025 -3.976999 -2.238178
H -3.257470 4.274819 -3.882627
C 2.949085 1.654086 0.324760
H 2.529913 -6.119274 2.623162
C -2.949085 -1.654086 -0.324760
C 4.455665 1.783114 0.092576
H 3.834141 -6.453475 3.424713
C -4.455665 -1.783114 -0.092576
C 3.654112 -4.460111 3.017455
H 3.916818 -6.142541 1.890408
C -3.654112 4.460111 -3.017455
C 3.466229 -5.927425 2.710360
H 3.433158 -4.632288 0.299253
H -3.433158 4.632288 -0.299253
C 3.647911 -3.727194 0.572766
H 3.220265 -3.124150 -0.055493
C -3.647911 3.727194 -0.572766
H -3.220265 3.124150 0.055493
C 5.156558 -3.536614 0.477994
H 5.384333 -2.646115 0.759831
C -5.156558 3.536614 -0.477994
C -1.258342 -4.947030 4.771713
H 5.440140 -3.667757 -0.430301
C 1.258342 4.947030 -4.771713
C -1.002457 -6.356388 4.312077
H 5.595159 -4.173290 1.045139
C -2.957559 -4.438536 2.910025
H -0.456790 -4.611136 5.201909
C 2.957559 4.438536 -2.910025
H 0.456790 4.611136 -5.201909
H -1.963576 -4.962259 5.436976
C -4.177044 -4.638634 3.778177
H 1.963576 4.962259 -5.436976
C 4.177044 4.638634 -3.778177
H -1.810624 -6.726336 3.950001
H -0.711021 -6.887091 5.055375
H -0.320373 -6.354061 3.634427
H -3.176860 -3.786208 2.226186
H 3.176860 3.786208 -2.226186
H -2.763475 -5.275309 2.461723
H 2.763475 5.275309 -2.461723
H -3.987093 -5.298576 4.448102
H -4.911008 -4.936877 3.235840
H 4.911008 4.936877 -3.235840
H -4.408746 -3.809475 4.203023
H 4.408746 3.809475 -4.203023
N -1.725260 -1.463507 3.471725
N 1.725260 1.463507 -3.471725
N 0.277794 1.190435 3.052272
N -0.277794 -1.190435 -3.052272
N 2.511931 -1.036871 1.915248
N -2.511931 1.036871 -1.915248
N 0.738718 -3.579976 3.023387
N -0.738718 3.579976 -3.023387