117
Fe1 H50 C60 N6
H -1.978823 -0.461410 -1.281403
C -1.229966 0.609920 2.696246
C -0.477290 2.434077 1.742080
C -1.491174 1.695261 3.590792
C -1.043720 2.809556 2.999564
H 1.890750 -1.638285 -4.423081
H 1.091369 -3.633368 -3.329177
C 1.106452 5.329563 1.968064
C 1.113437 6.688573 2.237010
H -1.780730 -4.785025 -2.323020
H -1.786166 -7.055646 -2.760779
N -0.595154 1.067874 1.564885
C 1.229966 -0.609920 -2.696246
C 0.477290 -2.434077 -1.742080
C 1.491174 -1.695261 -3.590792
C 1.043720 -2.809556 -2.999564
C -1.106452 -5.329563 -1.968064
C -1.113437 -6.688573 -2.237010
H -2.299876 -3.416674 3.007089
H -1.527628 -1.816684 7.267627
H -3.773124 -1.948382 7.510425
H -5.060179 -1.467358 5.714834
H -4.136848 -0.903205 3.724765
N 0.595154 -1.067874 -1.564885
H 2.377799 -0.255083 0.222962
H -1.505014 -4.726181 1.120015
H -0.523192 -1.263740 5.276608
C -1.408648 -1.744764 2.047383
H -0.140724 -8.378230 -1.897532
H 1.490948 -7.462882 -0.666405
H 1.579672 -5.216545 -0.162259
H 2.045460 -2.194031 1.250306
H 1.551696 -1.360879 2.492188
H 4.187902 -1.310441 1.512660
C -1.616178 -0.704257 2.943008
H 3.705658 -0.463278 2.720460
H 5.132365 -3.425080 1.943658
C -2.253250 -1.025563 4.254089
H 5.641443 -5.081111 3.433972
C -1.476297 -1.303903 5.351740
H 4.726109 -5.183855 5.505726
C -2.049258 -1.641087 6.560341
H 3.324807 -3.503538 6.208829
C -3.390409 -1.709271 6.690121
H 2.810319 -1.746632 4.757406
C -4.173391 -1.429997 5.628812
C -0.720021 -2.927243 0.340549
C -3.616318 -1.084406 4.402124
C -1.392023 -3.819240 1.237226
C -1.819550 -3.097236 2.273136
C -0.126192 -3.308327 -0.854451
C -0.125579 -4.771948 -1.187544
C -0.132969 -7.482497 -1.729898
C 0.855014 -6.946365 -0.978242
C 0.869122 -5.590157 -0.699848
C 2.167719 -1.357142 1.736687
C 3.581209 -1.296431 2.257752
C 3.930078 -2.422868 3.187540
C 4.776122 -3.430684 2.791858
C 5.092174 -4.461851 3.674840
C 4.536973 -4.485202 4.922611
C 3.710101 -3.491396 5.317820
C 3.414324 -2.464899 4.457491
N -0.749644 -1.643235 0.840112
N 1.825860 -0.237617 0.849474
H -2.377799 0.255083 -0.222962
H 1.505014 4.726181 -1.120015
H 0.523192 1.263740 -5.276608
H 0.140724 8.378230 1.897532
H -1.490948 7.462882 0.666405
H -1.579672 5.216545 0.162259
H -2.045460 2.194031 -1.250306
H -1.551696 1.360879 -2.492188
H 2.299876 3.416674 -3.007089
H -4.187902 1.310441 -1.512660
H -3.705658 0.463278 -2.720460
H -5.132365 3.425080 -1.943658
H -5.641443 5.081111 -3.433972
H 1.527628 1.816684 -7.267627
H -4.726109 5.183855 -5.505726
H 3.773124 1.948382 -7.510425
H -3.324807 3.503538 -6.208829
H 5.060179 1.467358 -5.714834
H -2.810319 1.746632 -4.757406
H 4.136848 0.903205 -3.724765
C 0.720021 2.927243 -0.340549
C 1.392023 3.819240 -1.237226
C 0.126192 3.308327 0.854451
C 1.408648 1.744764 -2.047383
C 0.125579 4.771948 1.187544
C 0.132969 7.482497 1.729898
C 1.819550 3.097236 -2.273136
C -0.855014 6.946365 0.978242
C -0.869122 5.590157 0.699848
C -2.167719 1.357142 -1.736687
C 1.616178 0.704257 -2.943008
C -3.581209 1.296431 -2.257752
C -3.930078 2.422868 -3.187540
C 2.253250 1.025563 -4.254089
C -4.776122 3.430684 -2.791858
C 1.476297 1.303903 -5.351740
C -5.092174 4.461851 -3.674840
C 2.049258 1.641087 -6.560341
C -4.536973 4.485202 -4.922611
C 3.390409 1.709271 -6.690121
C -3.710101 3.491396 -5.317820
C 4.173391 1.429997 -5.628812
C -3.414324 2.464899 -4.457491
C 3.616318 1.084406 -4.402124
N 0.749644 1.643235 -0.840112
N -1.825860 0.237617 -0.849474
H -1.890750 1.638285 4.423081
H -1.091369 3.633368 3.329177
H 1.780730 4.785025 2.323020
H 1.786166 7.055646 2.760779
Fe 0.000000 0.000000 0.000000
H 1.978823 0.461410 1.281403