26
H18 C8
H 0.604498 0.946316 2.168624
H 0.389805 -0.594113 2.110794
H 1.048276 1.042812 -0.249114
C -2.347226 -0.263219 -3.821227
H 1.063868 -0.526741 -0.346980
C -2.251274 -0.075139 -2.293181
C -0.942728 0.127327 -1.772711
C -0.656072 0.228736 -0.104539
H -3.264767 -0.390945 -4.070341
C 2.347226 -0.263219 3.821227
H -1.833883 -1.032030 -4.081462
C 2.251274 -0.075139 2.293181
H -2.000599 0.516119 -4.261625
C 0.942728 0.127327 1.772711
H -2.798200 0.685952 -2.046292
C 0.656072 0.228736 0.104539
H -2.631484 -0.858337 -1.866129
H 3.264767 -0.390945 4.070341
H -0.604498 0.946316 -2.168624
H 1.833883 -1.032030 4.081462
H -0.389805 -0.594113 -2.110794
H 2.000599 0.516119 4.261625
H -1.048276 1.042812 0.249114
H 2.798200 0.685952 2.046292
H -1.063868 -0.526741 0.346980
H 2.631484 -0.858337 1.866129