135
Zr1 H62 C65 N6 O1
H -1.787669 -3.511919 -4.000895
C 0.564262 -1.554746 4.168512
C 1.388339 -2.250454 5.020593
C 1.023438 -2.458057 6.343855
C -0.148744 -1.977876 6.845306
H -1.606198 -4.784478 1.177495
C -0.949022 -1.239380 5.996905
C -0.610612 -1.041286 4.680990
C -0.563184 -2.214005 8.285766
C 1.846475 0.730471 -3.172004
C 2.837273 1.657553 -3.635037
C 3.438404 2.197955 -2.553926
C 2.813841 1.613180 -1.401210
C 3.203571 1.869910 -0.066839
H -0.767129 2.144073 -3.123861
H -0.698437 3.743091 -3.138389
H 0.487150 2.896832 -2.475661
C -2.819411 1.687663 2.556857
H -3.166929 3.258156 -0.697620
H -2.838093 3.957033 -2.098352
H -3.038172 2.370693 -2.022242
C -4.176786 0.236027 3.907769
H 0.306820 4.007745 -0.303490
C -3.745435 0.863590 5.053315
H -0.783311 4.980785 -0.954748
C -2.860126 1.912699 4.958770
C -2.388840 2.356430 3.719725
H -1.122993 4.188407 0.391841
H -0.802911 -5.968290 -1.133285
C 2.139994 -0.508808 -6.194987
H -2.256465 -7.754310 -1.383204
C 2.390406 -0.253662 -7.527893
H -5.284937 -5.218701 -2.056614
H -3.845533 -3.420003 -1.848589
C 1.694450 0.708284 -8.204132
C -1.365856 3.473683 3.606408
H -4.451443 -8.662374 -1.502978
H -5.710741 -7.675072 -1.437990
H -3.878273 0.342206 0.611190
C 1.952530 1.022066 -9.676941
H -5.041750 -8.028472 -2.848202
C 4.183551 2.968146 0.176669
C 0.039844 2.884154 3.522224
C -1.455993 4.518037 4.715623
H -6.165029 -0.233060 0.491031
H -6.276808 -0.191857 2.086124
H -4.465241 -1.977876 2.190431
H -4.308893 -1.963613 0.597616
H -3.036806 -1.687866 1.528759
C 3.792223 4.296171 0.014055
C -0.915018 -2.521447 -2.329931
C -0.604128 -1.890714 -4.454085
C 0.111158 -1.012760 -3.593461
C 1.011680 -0.034966 -4.011684
C 0.179154 -2.258378 1.853822
C -1.233676 -2.805118 -3.690116
C 1.195091 0.191654 -5.492526
C 0.728927 1.400823 -7.527873
C 0.474258 1.142507 -6.169882
N 1.834069 0.719378 -1.794145
N 1.826628 0.114001 0.988063
C -0.520263 -3.437436 2.282556
C -1.086407 -3.988931 1.197393
C -0.765481 -3.158519 0.071857
C -1.245471 -3.337596 -1.232854
H 3.761600 2.018877 2.703416
H 2.555309 0.388164 4.105837
C -1.582749 1.419840 0.616258
C -1.195977 2.980824 -1.286561
C -0.479830 2.936451 -2.625399
C -2.694899 3.158316 -1.549735
C -0.650046 4.144034 -0.464464
H 5.765397 1.820783 0.731030
H 7.229344 3.567183 1.162287
C -3.746758 0.636970 2.649796
H 4.382900 6.232742 0.171367
H 7.672370 5.884096 1.523541
H 7.126186 6.678058 0.245679
C -2.161664 -4.496052 -1.463849
H 6.413138 6.860305 1.665598
C -1.718086 -5.801891 -1.329664
C -4.316881 -0.053983 1.417460
C -2.588147 -6.868431 -1.474151
C -5.825296 0.191654 1.305428
C -3.923971 -6.673506 -1.749975
C -4.003800 -1.556331 1.436416
C -4.366236 -5.378761 -1.875732
C -3.509594 -4.302712 -1.744411
C -4.867038 -7.866827 -1.898703
N -0.122013 -1.380423 -2.273711
N 0.046460 -2.115750 0.484228
N -0.949220 1.695587 -0.584760
N -2.342369 2.182107 1.304887
O -1.215283 0.173588 0.982289
H -0.573889 -3.767065 3.173104
H -1.752691 -0.859039 6.330723
H -1.192793 -0.545257 4.116239
H -0.523672 -1.369330 8.781561
H -5.997801 1.155185 1.269679
C 2.743548 1.150431 1.035287
C 3.144035 1.365958 2.397936
C 2.484423 0.473741 3.162498
H 2.215656 -2.592761 4.701400
H 1.605404 -2.947746 6.912451
H 3.034752 1.855647 -4.542842
H 4.138348 2.839780 -2.556901
H -1.478845 -2.564236 8.309908
H -4.785008 -0.489791 3.978522
H 0.044500 -2.863754 8.698062
H -4.055147 0.573580 5.902561
H -2.563014 2.343752 5.751879
H 2.636146 -1.188668 -5.753303
H 3.057245 -0.754445 -7.981435
H 2.077736 1.987182 -9.788859
H 2.759587 0.551394 -9.974418
C 5.473560 2.717754 0.615478
C 6.342505 3.762108 0.884455
H -1.539711 3.945940 2.742048
C 5.950145 5.083794 0.759982
H 0.073890 2.223311 2.798048
C 4.667620 5.334186 0.297484
H 0.684300 3.598878 3.342131
H 2.914996 4.492680 -0.293345
H 0.262656 2.448346 4.371315
H -1.266921 4.093322 5.580087
C 6.870363 6.224818 1.076513
H -0.800097 5.226422 4.550293
H -2.356427 4.901547 4.730277
Zr 0.204863 -0.101367 -0.491855
C 1.666339 -0.315468 2.309496
C 0.841327 -1.377254 2.709941
H -0.633293 -1.840002 -5.402090
H 0.222714 2.064835 -7.980453
H -0.203374 1.630612 -5.715982
H 1.187447 0.727301 -10.214070