12
H6 C6
H 2.094112 -0.623268 -0.625858
C 0.454417 -1.227011 0.301265
H 0.768320 -2.077059 0.509912
C -0.783178 -0.860560 0.671661
H -1.325633 -1.455293 1.136306
C -1.236488 0.367953 0.369194
C 1.236805 -0.367953 -0.369732
H -2.093795 0.623268 0.625321
C -0.454101 1.227011 -0.301802
C 0.782546 0.860560 -0.670461
H -0.768004 2.077059 -0.510450
H 1.325001 1.455293 -1.136716