13
H8 C4 O1
H -1.086906 1.258773 -0.699960
H -1.508335 -0.135126 -1.385654
H 0.338515 -0.686810 1.910012
C 0.176141 -0.011079 1.205976
C 1.256982 -0.060045 0.143052
H 0.131519 0.884999 1.626717
O -1.007579 -0.291817 0.517825
H 1.899042 0.682606 0.264624
C 0.539314 0.070531 -1.169483
C -0.884868 0.290878 -0.743609
H 1.750302 -0.916950 0.187125
H 0.628557 -0.753730 -1.710759
H 0.881415 0.839297 -1.690289