101
Cu1 H44 C52 N4
Cu -0.089710 -0.095354 -0.131958
C -0.919946 5.005015 -2.291377
H 1.287756 -5.056670 3.891726
C -0.010616 5.686347 -1.262639
C -0.444852 2.448118 -1.745258
H -1.023338 -4.713471 2.862387
C 0.680075 2.191036 -2.524252
C 1.111252 3.107922 -3.624728
H -1.657872 -5.960892 4.731176
C 0.426073 3.114254 -4.833514
C 0.849703 3.901965 -5.892248
C 1.979558 4.690943 -5.750728
H -3.436539 -2.164173 3.024402
C 2.673568 4.675746 -4.562673
H -4.776001 -0.574820 1.679318
C 2.249787 3.900699 -3.494180
C 1.436574 1.020866 -2.432418
H -4.886423 1.987142 2.059204
C 2.462783 0.623211 -3.363213
H -7.154480 2.492443 2.013022
C 3.055390 -0.488703 -2.859570
H -8.340906 2.405060 -0.003658
C 2.420550 -0.766049 -1.612544
H -7.230700 1.827574 -1.964253
C 2.898673 -1.666471 -0.641406
H -4.966255 1.305810 -1.930891
C 4.124513 -2.459249 -1.007385
H -3.570658 4.964489 -1.663155
H -4.469011 3.756327 -1.125127
C 5.372467 -1.845036 -1.108512
H -4.436015 5.496385 0.457197
H 0.233690 6.579171 -1.584165
H -3.740289 4.198307 1.084078
C 6.502231 -2.588423 -1.405036
H -2.841090 5.407735 0.544364
C 5.152448 -4.561501 -1.574098
C 4.027521 -3.821913 -1.262109
C 6.396331 -3.946022 -1.640990
H -1.734226 5.550841 -2.427737
N 0.965969 -1.509436 0.851014
N 1.390193 0.111579 -1.388691
H 2.871160 -2.735327 4.460353
H 1.286963 -2.803714 4.658628
H 2.247770 -4.903434 5.163222
C 0.646527 -2.048929 2.081768
C -0.664084 -2.079323 2.572638
C -1.023818 -2.907560 3.782683
C -1.172578 -4.277824 3.691920
C -1.540824 -5.021211 4.806068
C -1.729959 -1.416987 1.979497
C -3.102263 -1.560092 2.371801
C -3.833617 -0.683732 1.649567
C -2.910531 0.049524 0.828342
C -3.236385 1.205763 0.076186
C -4.684644 1.576823 0.068969
C -5.360395 1.945351 1.237459
C -6.708433 2.249291 1.210584
C -7.412746 2.201167 0.015574
C -6.754580 1.854169 -1.142322
C -5.404622 1.543896 -1.122512
C -2.294017 1.960548 -0.633154
C -2.467306 3.306749 -1.168066
C -3.623690 4.251497 -0.978771
C -3.664217 4.896103 0.398367
C -1.309338 3.625886 -1.813032
N -1.639096 -0.435514 0.994541
N -1.031488 1.500838 -0.926948
H -1.960777 -4.904700 6.792231
H -1.747428 -2.596022 6.950996
H -1.201681 -1.343535 5.080768
C -1.737346 -4.393068 6.022738
C -1.605100 -3.029136 6.117346
C -1.268037 -2.288282 5.010072
H 4.343629 -3.486313 2.800020
H 4.676995 -3.288752 1.247623
H 6.016480 -1.841237 2.542905
H 5.039578 -0.973741 1.621375
H 4.706595 -1.172569 3.174001
H 2.874411 -4.988284 3.693273
H -0.447835 4.935362 -3.158180
H -0.485798 5.766132 -0.408607
H 0.799364 5.150653 -1.137594
H -0.344909 2.568428 -4.936695
H 0.367135 3.900699 -6.710632
H 2.273349 5.238036 -6.469569
H 3.456913 5.205109 -4.473469
H 2.733355 3.910830 -2.676296
H 2.683438 1.058859 -4.177311
H 3.756773 -0.986405 -3.260997
H 5.448500 -0.907887 -0.972688
H 7.352226 -2.165440 -1.446855
H 7.170370 -4.456389 -1.849503
H 5.074880 -5.493584 -1.740931
H 3.180291 -4.249963 -1.220832
C 2.272445 -1.883029 0.595427
C 2.836551 -2.544098 1.771790
C 4.282823 -2.851838 2.042649
C 5.082566 -1.598085 2.375249
C 1.837761 -2.630215 2.689097
C 2.036531 -3.127917 4.099585
C 2.119237 -4.657749 4.222714