234
Cu11 H98 C80 N16 Cl1 O28
Cu 5.001898 1.374928 -2.013958
Cu -4.348678 -1.999482 0.513242
Cu -2.349118 1.867278 2.207600
Cu -1.900629 0.004430 -0.451998
H 7.366864 1.609075 -2.576950
H 6.585451 1.790797 -3.826568
H 1.707723 -3.306574 -2.118147
H 0.280232 -2.924826 -2.284478
H -1.146405 -0.345418 3.747312
H -3.072913 -0.651339 4.972354
H -4.376711 -1.782200 6.558335
H -3.537278 -3.718390 7.611074
H -1.436572 -4.555096 6.954030
H 7.981812 3.553110 -1.142549
H 7.251947 4.938904 -1.440434
H 6.008238 3.953160 -3.167248
H 6.915463 5.329803 -4.777482
H 8.657428 5.956025 -6.259070
H 10.708234 4.975510 -6.099834
H 11.132981 3.366158 -4.496722
H 9.434554 2.721633 -3.003123
H 3.143624 -1.616166 -4.731504
H 3.429947 -2.621520 -3.523238
H 0.971977 -1.197813 -3.738531
H -0.195052 -1.520729 -5.670056
H -1.167862 -2.882991 -7.270491
H 7.165020 -0.108787 -1.024708
H 1.212997 3.992381 -2.876191
H 2.364114 3.164826 -2.445116
H -2.133438 4.163644 3.084509
H -2.225571 3.245882 4.249647
H -6.696226 -1.800502 1.178581
H -6.255056 -3.183682 1.492800
H -5.005165 -4.115825 -3.386715
H -6.332269 -5.229691 -8.726950
H -4.957315 -6.478213 -7.290342
H -3.839354 -5.437560 -5.561622
H 0.208198 1.980364 -5.607071
H 2.008798 1.597309 -4.028876
H 0.948906 4.686585 -5.524922
H 2.221841 5.959947 -7.002401
H 4.410662 5.324574 -7.511643
H 5.359726 3.479898 -6.464062
H 4.083471 2.193462 -4.958207
H 0.002214 4.840853 2.126866
H -0.925816 6.065843 4.113428
H -0.069681 7.509161 5.736411
H 1.289036 6.690758 7.432261
H -6.438643 0.032407 2.669460
H -5.770000 -0.193765 4.099099
H -5.084880 -2.388812 3.360240
H -8.515397 -1.260566 2.834342
H -10.318512 -1.884173 4.163635
H -9.998383 -3.283041 6.024507
H -6.079437 -3.603343 5.085360
H -2.029750 -6.359244 2.638312
H -2.560267 -5.244071 3.655874
H -1.319611 -4.926385 2.696461
C -2.741396 -1.442288 5.380409
C -3.515599 -2.112960 6.329843
C -3.026821 -3.271275 6.945542
C 7.124201 3.957082 -1.428621
C 6.846321 3.503430 -2.856445
C 7.990760 3.940086 -3.780589
C 7.766867 4.911450 -4.717408
C 8.812706 5.291890 -5.599148
C 10.016852 4.715347 -5.501234
C 10.271431 3.762286 -4.554583
C 9.258468 3.371388 -3.672332
C 3.444323 -0.640880 -2.933646
C 2.936386 -1.803117 -3.781454
C 1.440567 -2.077661 -3.654599
C 0.894995 -2.983657 -4.751666
C 0.011410 -2.447642 -5.690235
C -0.560979 -3.255587 -6.641596
C -4.282527 -2.696040 -2.109360
C -5.887931 -4.804801 -8.003664
C -5.064164 -5.544763 -7.153929
C -4.408649 -4.925077 -6.123210
C -0.599960 1.103129 -3.933576
C 0.150086 2.209150 -4.646105
C 1.552520 2.481080 -4.133357
C 2.389059 3.313864 -5.099192
C 1.844991 4.435573 -5.713009
C 2.598648 5.187302 -6.595897
C 3.902147 4.819935 -6.888733
C 4.460011 3.720451 -6.276220
C 3.700601 2.955649 -5.375578
C 0.341267 3.934857 2.337071
C -0.340863 3.462902 3.622424
C 0.059103 4.391123 4.748559
C -0.326773 5.733775 4.771194
C 0.164603 6.588784 5.752804
C 0.984641 6.111600 6.743594
C -4.393700 0.139610 2.619967
C -5.696070 -0.422552 3.138738
C -5.893018 -1.929930 2.991221
C -7.102566 -2.361357 3.813667
C -8.380335 -1.856719 3.561717
C -9.451006 -2.217548 4.360909
C -9.269648 -3.066021 5.454638
C -8.012998 -3.582425 5.693719
C -6.938180 -3.241206 4.898470
C -2.174981 -5.399646 2.768512
N 6.634852 2.031350 -2.939701
N 2.724709 -0.256518 -1.915391
N 1.142603 -2.603217 -2.298462
N -3.231434 -1.907705 -2.052361
N -0.286626 0.876957 -2.674316
N 1.506489 3.126913 -2.775056
N -0.779827 2.190847 1.091034
N -1.824731 3.370080 3.431955
N -3.759494 -0.504915 1.683659
N -6.019276 -2.297297 1.554013
Cl -3.653317 1.487099 -2.096895
O 4.524528 -0.031653 -3.295436
O 6.257272 -0.031653 -0.661613
O -2.895468 -1.595248 -0.711310
O -4.924527 -3.080401 -1.046564
O -0.811752 1.509716 -0.140910
O -2.550248 0.150069 1.334457
O -3.960645 1.250860 3.136826
O -3.429665 -3.681784 1.717852
O -3.862326 -7.155422 -3.178536
O -3.652365 3.359621 0.763450
O -1.509647 3.853801 -2.043830
Cu 1.345085 -1.236641 -0.895859
Cu 1.826525 0.300545 3.372475
Cu 4.919027 3.442115 2.060341
Cu 2.992481 1.263150 0.534138
Cu -2.383125 -0.796586 -3.397758
Cu 0.366129 2.240527 -1.432033
Cu -4.801919 -5.458085 -0.589686
H 1.148150 -1.591326 4.731938
H 0.564788 -0.368950 5.335592
H 6.461817 4.022450 3.855779
H 5.768445 5.264435 3.435854
H -0.080174 -2.886913 2.963429
H -1.428011 -2.258076 2.392365
H -0.175939 -3.439924 5.373303
H 5.295077 2.360803 5.302466
H 4.042408 2.864135 6.150261
H 3.928362 4.793788 4.687841
H 4.538230 6.842411 5.697038
H 5.608005 8.017722 7.393553
H 7.128759 6.950921 8.789927
H 7.602446 4.686585 8.470143
H 6.586211 3.511274 6.730219
H -0.673137 -5.170860 -7.346500
H 0.864579 -6.052016 -5.840773
H 1.815219 -4.708056 -4.191291
H 6.299260 0.338328 0.245278
H 5.839423 -0.916732 -0.634755
H 4.194133 -2.709113 0.165032
H 2.862359 -3.022878 0.994644
H 4.274538 -3.578503 1.505344
H -4.374880 -1.037008 -4.801266
H -3.191910 -1.372998 -5.635276
H -5.645092 -2.677737 -3.630426
H -3.028461 -3.437309 -4.495913
H -5.508878 -1.895939 -6.568834
H -6.616464 -2.952281 -8.354072
H -0.378187 3.043242 -4.570086
H 1.310898 4.018528 2.518436
H 0.001552 2.549062 3.837302
H 1.954462 4.456491 7.403770
H 1.143968 3.007943 5.782480
H -7.885381 -4.182500 6.417817
H -5.430446 -6.207591 -2.886513
H -6.611843 -5.298980 -2.303626
H -6.474435 -6.824662 -1.842462
H -1.040475 -5.763091 -2.728242
H -1.558788 -6.236353 -4.166359
H -1.203246 -7.322763 -3.045890
H -8.041631 -5.134254 2.248994
H -7.651999 -6.529200 2.931713
H -8.750414 -6.486057 1.768733
C 0.239223 -1.457976 1.562245
C -0.518136 -2.034519 2.711919
C -0.663897 -1.188661 3.985979
C -1.488913 -1.928623 5.028951
C -1.773575 -3.758918 6.562640
C -1.024760 -3.094782 5.622313
C 3.527925 2.152934 4.314138
C 4.449112 2.871979 5.247900
C 4.787173 4.323141 4.889950
C 5.457963 5.060488 6.028890
C 5.171723 6.399218 6.248553
C 5.801680 7.096038 7.264689
C 6.703399 6.468508 8.091700
C 6.987969 5.128471 7.896743
C 6.377337 4.427729 6.865640
C 6.084175 3.635473 -0.377208
C -0.263600 -4.611312 -6.695485
C 0.633946 -5.131639 -5.794490
C 1.207263 -4.331539 -4.815692
C 4.025420 -1.571716 1.865669
C 3.820970 -2.830697 1.062909
C -4.794489 -3.150999 -3.451899
C -3.887149 -2.952281 -4.662175
C -4.557885 -3.566737 -5.880645
C -5.388954 -2.826775 -6.717176
C -6.052202 -3.458227 -7.782467
C 0.171584 3.081155 1.113402
C 1.364101 4.782022 6.733557
C 0.894939 3.924398 5.762659
C -3.119962 -4.889779 1.717798
C -2.997219 -6.384084 -2.707768
C -1.575276 -6.431148 -3.204982
C -6.829756 -6.295184 1.061981
C -7.913435 -6.093851 2.092846
N 1.012703 -0.431703 1.757021
N 0.690725 -0.816065 4.540543
N 3.479538 2.535989 3.047588
N 5.638218 4.380664 3.656197
N 5.102648 2.819684 -0.670536
N -3.584664 -1.508963 -4.814825
O 1.655776 -0.051264 0.544501
O 0.105716 -2.000528 0.396380
O 2.563821 1.745040 2.325059
O 2.839847 1.165882 4.784203
O 4.256849 2.651036 0.451354
O 6.226509 4.175410 0.781007
O 3.254816 0.924022 -1.338650
O 4.616319 -0.591201 1.328387
O 3.601638 -1.558642 3.052913
O -0.976222 -0.261748 -2.163333
O -1.462206 0.420691 -4.591203
O 0.962996 3.292946 0.098757
O -5.979159 -6.018025 -2.097129
O -3.527975 -5.750017 0.864139
O -3.245112 -5.502927 -1.796934
O -6.282091 -5.221846 0.638264
O -6.507560 -7.439118 0.718785