101
Ni1 H44 C52 N4
C 3.240543 -3.013431 0.591925
C 3.590972 -1.426432 3.015767
C 3.710173 -2.624634 3.700655
C 4.696506 -2.820210 4.649391
C 5.600939 -1.818763 4.915142
C 5.521224 -0.642947 4.212731
C 4.533490 -0.450905 3.265670
H 0.647261 -8.295179 -3.511402
H -0.827609 -7.716696 -1.856132
Ni 0.126693 -0.378447 -0.259129
H -2.615293 3.292150 -3.785777
H -2.220543 4.629376 -3.068250
H -0.935400 4.370178 -5.005555
H 0.008760 4.340723 -3.755426
H -0.384931 3.003497 -4.471397
H -4.553866 1.156123 -2.719061
H -6.015761 1.649777 -4.419826
H -5.297384 1.658024 -6.606558
H -3.089102 1.170261 -7.067108
H -1.620411 0.648330 -5.366699
H -2.953791 -1.777527 -3.932912
H -1.708457 -3.813410 -3.392954
H 2.013862 -4.540342 -3.572231
H 2.022533 -6.691686 -4.390240
C 0.616269 -7.422153 -3.190759
H -0.894997 -5.562996 -1.052366
H 2.961545 -4.493215 -0.788786
H 1.526318 0.524622 5.704440
H 1.314083 -1.717441 6.262405
H 0.046203 -1.261488 5.461863
H 1.167726 -2.092099 4.747758
H -0.631695 2.904531 4.448647
H -2.407133 1.754634 5.442025
H -2.393934 1.449488 3.905571
H -1.835384 0.392667 4.917809
H 0.854069 4.354861 2.585178
H -2.972232 3.470054 1.891832
C -0.806889 2.421480 0.004129
C -1.184023 3.518359 -0.877676
H -1.471230 5.497689 -1.296313
C -1.583161 2.975221 -2.050698
H -1.320235 5.223175 0.241233
C -1.903376 3.744568 -3.307660
H 0.592923 6.315341 -0.554202
C -0.692295 3.876523 -4.219078
H 0.989574 4.887395 -0.044092
C -1.443106 1.543741 -1.912292
H 0.840356 5.158375 -1.581729
C -1.971083 0.555255 -2.744671
C -2.923966 0.888677 -3.854211
C -4.247400 1.164370 -3.596950
C -5.128144 1.455378 -4.616805
C -4.705541 1.460091 -5.917060
C -3.388053 1.166726 -6.186907
C -2.502219 0.866292 -5.167847
C -1.672563 -0.796110 -2.565279
C -2.244574 -1.849396 -3.337078
C -1.560292 -2.967482 -3.036716
C -0.560157 -2.615208 -2.065755
C 0.494486 -3.429325 -1.669346
C 0.565476 -4.823104 -2.210564
C 1.432998 -5.174199 -3.216805
C 1.440257 -6.467833 -3.700637
C -0.251356 -7.075770 -2.206499
C -0.287546 -5.785671 -1.719625
C 1.461527 -2.992223 -0.772282
C 2.652092 -3.703840 -0.406670
C 2.389570 -1.903592 0.892291
C 2.461795 -1.153096 2.067738
C 1.505776 -0.198776 2.381246
C 1.218920 0.364391 3.690184
C 1.691394 -0.148115 5.027172
C 0.992061 -1.419363 5.409466
C 0.263959 1.318710 3.509831
C -0.541512 1.953745 4.620430
C -1.921878 1.330492 4.730820
C 0.012358 1.410608 2.076337
C -0.584313 2.467429 1.379647
H -3.609393 5.352774 3.049660
C -0.992317 3.690372 2.126193
C -0.050388 4.553973 2.671473
C -0.974538 4.991075 -0.635557
C 0.498005 5.373981 -0.712087
C -2.322750 4.021439 2.262130
N -0.850075 1.230347 -0.697492
N -0.673678 -1.277982 -1.738006
N 1.331802 -1.851752 -0.002068
N 0.675877 0.384419 1.427170
H -0.070310 1.844175 5.460741
C -0.429910 5.699156 3.332908
C -1.760036 6.007838 3.456483
C -2.705073 5.159553 2.941393
H 4.046897 -3.219611 1.005910
H 3.111952 -3.313865 3.519126
H 4.747177 -3.628437 5.109013
H 6.259361 -1.937759 5.560645
H 6.139016 0.033324 4.375049
H 4.503791 0.347896 2.789988
H 2.647021 -0.307168 4.989303
H 0.215064 6.262323 3.696468
H -2.019346 6.790144 3.887578