91
Cu1 H49 C37 N4
Cu 0.080090 0.028411 0.021501
H -4.505444 -1.750545 0.206061
H -3.550346 -2.554668 2.454124
H 0.002570 0.196079 4.831650
C 0.365910 0.555368 4.100773
C 1.143480 1.608522 3.651889
C 1.270116 1.509670 2.280103
H -0.872049 0.479328 -5.731786
H -2.811832 0.623804 -3.982334
C 3.699875 0.901350 -1.639025
H -1.930112 -2.864531 4.169157
C 2.509258 0.220792 -1.548946
H -0.724109 -2.155458 4.964603
C 1.926968 -0.917907 -2.369886
H -2.811832 -1.307612 5.514578
C 0.557639 -0.417944 -2.914398
H -2.094621 -0.094774 4.828144
H -3.192924 -0.898897 4.050721
C 0.356441 -0.159408 -4.255111
C 0.106720 4.230001 1.670023
H -0.796303 -4.273172 2.845216
H -0.862580 -3.828338 1.341249
H 1.441726 2.344209 4.229516
C 0.258210 -2.569876 2.464829
H 4.460876 2.614151 -0.455381
C -3.801252 1.925989 0.174991
C 2.879698 -1.267691 -3.562094
C 4.156713 -2.031893 -3.139979
C 1.691448 -2.170666 -1.502233
C 1.016844 -3.318870 -2.211977
H 2.632344 3.857405 2.730217
H 3.469090 3.950554 1.211365
H 0.137491 -3.022314 -2.500241
H 4.792261 3.116015 3.024438
H 3.840714 1.893672 3.262902
H 4.636037 2.017237 1.918427
H 1.254730 4.408695 0.157682
H -3.598870 1.418422 0.925754
H -4.989502 -0.195527 -1.355211
H 0.690193 4.762281 2.192048
H -4.446268 0.595289 -2.824559
H -5.177681 -1.478702 -3.236405
H -3.635559 -1.472999 -3.522847
H -4.187078 -2.126943 -2.208945
N 0.563557 0.405189 1.873153
C -2.689930 -0.775332 -0.231406
N 1.768377 0.699844 -0.515325
C -3.620174 -1.549039 0.416624
C -3.089958 -1.936843 1.657112
C -1.825963 -1.377949 1.725543
C -0.780918 -1.486306 2.828917
C -0.010449 -0.184121 2.973012
C -0.883884 0.256911 -4.676473
C -1.891056 0.342456 -3.789943
C -1.678023 0.043999 -2.436140
C -2.803547 0.150455 -1.431598
C -1.441320 -1.866506 4.163314
C -2.476897 -0.955927 4.685653
C -0.274373 -3.932893 2.103634
C 1.922234 2.450665 1.276594
C 2.517542 1.699770 0.101881
C 3.673838 1.857553 -0.586784
H 4.582779 0.840518 -2.324097
C -2.790529 1.612324 -0.930483
H 1.076019 -0.244953 -4.909440
C -4.190629 -0.106180 -2.131689
C -4.298329 -1.446385 -2.825600
C 3.020537 3.289006 1.990832
H 0.884290 -2.206785 1.684497
H 0.976604 -2.817006 3.302274
C 4.166181 2.515299 2.619571
C 0.874822 3.429680 0.688720
H 0.432187 -4.512698 1.899795
H -0.203362 3.135025 0.340232
H -0.534746 4.781291 1.214441
H -0.386807 3.625483 2.262656
N -1.571507 -0.695490 0.563292
N -0.437698 -0.273468 -2.010949
H 3.108117 -0.370419 -3.991858
H 2.366052 -1.990071 -4.261926
H 4.832501 -2.062309 -3.740113
H -1.868569 1.914583 -0.525783
H -2.956221 2.290981 -1.678578
H 4.508217 -1.613673 -2.266024
H -3.691185 2.889796 0.389781
H 3.859650 -2.866432 -2.829408
H 1.143480 -1.896922 -0.686821
H -4.668769 1.792919 -0.157624
H 2.575535 -2.509044 -1.078917
H 0.892574 -4.039349 -1.579711
H 1.523389 -3.602119 -2.944919