13
H8 C4 O1
H 1.665967 0.949113 -0.780097
H 1.265841 -0.501161 -1.254491
H -0.699489 -1.286853 1.525107
H 1.474500 -1.088537 0.906038
C -1.162514 -0.272569 -0.259461
C -0.503178 -0.434552 1.113695
C 0.981765 -0.246833 0.805734
H -1.175812 -1.123356 -0.721837
C 1.021005 0.236087 -0.642903
H -2.076917 0.055938 -0.180765
H -0.827080 0.275447 1.744484
H 1.411769 0.413208 1.390750
O -0.318485 0.684188 -0.929143