13
H8 C4 O1
H -1.827197 -0.286068 0.670860
H -0.900271 -0.329334 -1.773579
H -0.880549 -1.524125 -0.763330
C -0.079125 0.691287 0.909946
O 1.068327 0.101102 0.508806
C -1.212234 0.212039 0.125310
H 1.206380 -1.265642 -0.728520
C -0.629544 -0.606676 -0.895621
H 1.113150 0.135492 -1.390201
H -0.014581 1.646454 0.831039
C 0.767121 -0.413646 -0.683276
H -0.220764 0.470522 1.834014
H -1.685558 0.942004 -0.278661