89
H45 Ru1 C36 N5 O2
H -3.481385 -2.615634 0.158713
H 0.909361 -1.441617 -3.964285
H -6.554064 -2.231296 2.115802
H -5.763224 -1.149688 1.303412
H -4.137256 -3.623735 -1.838524
H -3.564687 -4.104683 -3.213024
H -3.872588 -5.780651 -1.505094
H -2.566119 -5.198893 -0.861879
H -2.520778 -5.826856 -2.297315
H -0.780929 -2.655538 -5.086152
H -1.884942 -3.714044 -4.746882
C 1.957488 2.223249 0.985489
H 0.132228 -4.780951 -5.308251
C 2.160998 3.126340 2.101553
H -0.269519 -5.137987 -3.835297
H 0.845039 -4.068980 -4.106849
Ru 0.013391 -0.008644 0.018907
C -2.739050 -2.056979 0.131756
C 0.720614 -1.158089 -3.098993
C 1.574721 -0.233996 -2.579955
C 3.259739 4.102937 2.179276
C 2.945512 5.453372 1.605198
C -2.542921 -1.239997 1.230363
C -1.922902 -2.134686 -1.045584
C -2.216041 -2.970570 -2.158415
C -1.262814 -2.678641 -3.109542
C -0.401325 -1.733546 -2.504458
H -0.647013 2.034230 -0.962108
C -5.897139 -1.531926 2.172198
C -3.350633 -3.984971 -2.274326
C -3.051168 -5.316505 -1.682465
C -1.045597 -3.331806 -4.444270
C 0.014130 -4.432316 -4.421536
N -1.528537 -0.271800 1.356889
N -0.842087 -1.376511 -1.257131
N 0.935722 -1.237897 0.797174
H 2.467844 -0.137387 -5.256410
H 4.727539 -1.399613 -4.100518
H 4.118064 -1.750348 -5.500848
H 3.332496 -2.107384 -4.192873
H -3.922147 -0.439817 4.948448
N 1.468222 0.400267 -1.385712
H -4.408250 -2.972670 2.251937
H -4.642339 -2.285901 3.640924
O -1.095156 1.357963 -0.833856
H -6.203985 -0.853558 2.778256
H -1.024508 1.614188 3.929459
H 3.402090 2.710498 -0.253216
H 3.844961 0.564083 -4.992436
H 4.509267 2.351362 -3.710736
H 4.399604 2.970924 -2.275666
H 0.524485 2.914218 4.973348
H 6.523274 2.009028 -2.749821
H 1.775068 3.829910 4.750934
H 5.829443 0.603987 -2.741265
H 5.873730 1.462973 -1.431185
H -0.083935 5.100537 5.146145
H -0.795691 4.466274 3.901829
H 0.458055 5.386166 3.702908
H -2.594589 0.360363 5.171688
H -4.226884 1.899817 5.390887
H -4.983982 1.387366 4.117366
H -3.639553 2.179145 3.964309
C -2.825515 -0.250798 3.246694
C -3.344306 -1.195893 2.436762
C 3.222833 -0.095382 -4.648202
C 3.915609 -1.466820 -4.607153
C -4.564309 -2.119985 2.687763
C -0.798854 1.269754 3.095408
O 1.473494 -2.145187 1.267939
C 2.676626 2.130840 -0.185164
C 1.180356 2.886916 3.033368
C 0.337847 1.809508 2.476399
C -1.663507 0.221749 2.563859
C 2.747274 0.333060 -3.312176
C 3.296645 1.271854 -2.482023
C 2.475225 1.305458 -1.274970
C 0.926232 3.556883 4.369476
C 0.051035 4.728800 4.272086
C -3.345361 0.242751 4.569153
C -4.120384 1.546982 4.504462
C 4.492395 2.137141 -2.763973
C 5.797809 1.496577 -2.388171
N 0.781772 1.467174 1.234164
H 4.028436 3.739601 1.711834
H 3.508590 4.214248 3.110411
H 3.725807 6.009928 1.652725
H 2.233755 5.856613 2.106574
H 2.676626 5.356763 0.688937