89
Cu1 H36 C48 N4
Cu 0.383403 0.119871 -0.242194
H -5.931759 -0.392125 0.172506
H -5.332133 -1.143469 -1.105100
H -6.129127 -2.725845 0.451136
H -4.546201 -2.895182 0.294351
H -5.147278 -2.142415 1.572074
H -4.561824 2.230465 2.084376
H -5.615424 1.193098 1.475904
H -5.456798 0.892845 3.816542
H -4.942385 -0.431969 3.080371
H -3.887529 0.606822 3.688593
H -2.041607 2.307307 4.061396
H 0.965135 -3.727638 -3.505144
H -1.428545 -3.142785 -3.661042
H -3.311116 -3.854285 -1.640786
H -5.140784 -4.765005 -2.784376
H -3.172714 3.822803 5.431232
H -6.365256 -3.447307 -4.255962
H -5.749414 -1.235964 -4.640149
H -4.221366 5.675549 4.472092
H -3.911442 -0.308168 -3.519071
H -4.157177 6.002840 2.177718
H -3.023559 4.490190 0.807382
H -0.112265 4.508689 2.242588
C -2.599980 -0.466121 -0.620376
C -3.872630 -0.222788 0.039831
C -5.192350 -0.971286 -0.140285
C -5.259420 -2.303214 0.612157
C -3.674845 0.761929 0.951110
C -4.727530 1.271363 1.906354
C -4.757049 0.517173 3.243293
C -2.275255 1.154677 0.854432
C -1.659626 2.263194 1.438430
H 3.785778 1.918828 3.662790
H 5.687580 2.803934 4.662487
C -0.289179 2.567716 1.337664
H 5.350460 -0.077642 0.966954
H 4.980370 -2.142415 -0.341196
H 4.342064 -2.347327 -3.353456
H 5.606144 -4.104733 -4.218930
H 5.283678 -6.271963 -3.420196
H 3.705827 -6.670403 -1.759663
H 2.445430 -4.927227 -0.892031
C -2.429719 3.230835 2.296186
H 2.333643 4.208436 2.039310
C -2.476019 3.057229 3.673328
C -3.143985 3.956565 4.491369
C -3.764505 5.052275 3.919690
C -3.725179 5.248649 2.560782
H 7.378603 3.743115 3.346167
C -3.055665 4.346467 1.746406
H 7.092851 3.883992 1.031720
H 5.231406 2.923467 0.028935
C 0.506811 -3.083019 -2.977884
C 0.334718 3.753076 1.879084
C -0.797589 -2.771381 -3.054402
C -1.066550 -1.769589 -2.049242
C -2.337272 -1.356919 -1.666208
C -3.478032 -1.971655 -2.425888
C -3.817811 -3.313545 -2.237553
C -4.898483 -3.857131 -2.922103
C -5.617613 -3.080173 -3.800453
C -5.255778 -1.763897 -4.021906
C -4.172118 -1.204658 -3.347925
C 1.891629 2.304461 1.173814
C 3.133864 1.675495 1.089049
C 4.315887 2.320114 1.733755
C 4.467482 2.300192 3.121855
C 5.595146 2.829548 3.717274
C 3.315495 0.407602 0.524774
C 4.543683 -0.332359 0.535426
C 4.344432 -1.453683 -0.178573
C 2.980160 -1.413839 -0.653213
N -1.622809 0.343567 -0.059308
C 2.418939 -2.328828 -1.519145
C 3.256603 -3.452999 -2.050448
N 0.681052 1.721031 0.845212
C 4.204928 -3.229588 -3.027166
N 0.117004 -1.423800 -1.419513
C 4.959889 -4.272647 -3.542532
C 4.771560 -5.553347 -3.069921
C 3.834843 -5.788142 -2.086709
C 3.083174 -4.753621 -1.573166
C 1.079395 -2.254832 -1.948920
C 1.665616 3.588008 1.771079
C 6.592858 3.398749 2.939109
C 6.433118 3.458515 1.566586
C 5.316684 2.903545 0.974798
N 2.356324 -0.269747 -0.179870