107
Zn1 H44 C57 N5
Zn -0.067371 -0.049844 0.045291
H 0.647098 0.507620 -6.088387
H 0.815272 -1.491994 -7.327029
H 0.497076 -2.349734 -6.015529
H -0.632890 -1.410622 -6.650046
H -1.656649 0.467601 -6.099103
H -2.934855 0.544971 -5.137563
H -2.374420 2.709998 -5.901237
H -2.184557 2.641965 -4.313272
H -0.909131 2.563261 -5.275882
H -3.791266 -1.706763 -3.487534
H -5.568292 -1.797472 -4.950512
H -6.877631 0.099427 -5.339311
H -6.386593 2.081700 -4.216012
H -4.582080 2.204425 -2.754352
H -5.129887 0.707715 -0.569674
C 3.384585 1.118577 4.601578
C 2.185581 -1.445305 2.282011
C 3.145252 -2.113622 3.206726
C 2.673275 -3.067408 4.120074
C 4.897623 -3.400899 4.965286
C 5.380279 -2.451116 4.054912
C 4.507556 -1.829488 3.193258
C 2.347500 -1.728106 0.909036
C 3.408739 -2.536489 0.350208
C 3.343157 -2.411097 -0.991727
C 2.215542 -1.562694 -1.287124
C 1.808278 -1.214529 -2.578524
C 2.803201 -1.545353 -3.668136
C 3.857194 -0.679609 -3.916012
C 4.706669 -0.905494 -4.994778
C 4.506370 -1.998901 -5.814021
C 3.505294 -2.901996 -5.519799
C 2.657659 -2.677890 -4.447319
N 1.619052 -1.179846 -0.107835
C 2.383955 3.538390 0.792019
C 1.780634 2.287131 0.794480
C 0.585201 -0.615579 -2.935559
C 0.098627 -0.282087 -4.266691
C 0.802014 -0.342116 -5.604206
C 0.328281 -1.502666 -6.476870
C -1.191451 0.138112 -4.121397
C -1.980802 0.795757 -5.223976
C -1.850895 2.313810 -5.173278
C -1.509553 0.064744 -2.690948
C -2.769202 0.298188 -2.100386
C -3.967872 0.268840 -2.983183
C -4.307842 -0.925059 -3.644292
C -5.366385 -0.982419 -4.505620
C -6.145652 0.138112 -4.733847
C -5.846974 1.313336 -4.073099
C -4.772100 1.389372 -3.202986
C -2.999068 0.454262 -0.718129
C -4.293973 0.689040 -0.119052
C -4.087463 0.877129 1.204493
C -2.679228 0.730393 1.460327
C -0.740713 0.446258 3.013464
H 2.008434 0.414243 5.983806
H 2.761673 -0.764983 5.207130
H 4.122544 1.165265 5.245981
H 2.975471 2.004330 4.510045
C 1.183464 -0.618247 2.818604
H 3.213377 -4.326671 5.611334
C 0.805057 2.603280 -1.315988
N -0.400858 -0.338114 -2.002104
N -2.041839 0.451594 0.261644
N 0.043238 -0.264746 2.139900
N 0.892893 1.897613 -0.170989
C 2.339101 0.123438 5.097401
H -4.754557 1.073222 1.851819
H -3.286843 3.144870 3.392347
H -5.074646 2.017669 6.837832
H -4.307403 -0.151359 6.540025
H -2.989339 -0.687613 4.688585
H -1.283826 1.569457 5.609435
C 3.545595 -3.690370 4.988685
H 0.234211 1.518766 6.119896
H 0.814259 3.216905 4.563203
H -0.701401 3.267595 4.053692
C 1.433592 3.823859 -1.473012
C 2.164864 4.305421 -0.387491
C -2.071044 0.815766 2.721081
C -2.971111 1.181273 3.867344
C -3.472241 2.471218 4.035179
C -4.244675 2.763356 5.152605
C -4.547118 1.800233 6.078786
C -4.088338 0.519626 5.905066
C -3.302156 0.202142 4.803815
C -0.010617 0.675700 4.252003
C -0.339533 1.681510 5.330904
C -0.123707 3.102184 4.825946
C 1.176465 0.004715 4.148243
H -4.569799 3.647776 5.275818
H 1.775876 -0.431492 -5.452930
H -0.341421 3.739819 5.538826
H 3.728710 0.825104 3.731954
H 1.748301 -3.284844 4.140664
H 5.493449 -3.841108 5.559319
H 6.306020 -2.239015 4.033377
H 4.841768 -1.190518 2.574154
H 4.034291 -3.059404 0.838360
H 3.932057 -2.807284 -1.623127
H 3.998566 0.068746 -3.348914
H 5.424755 -0.306099 -5.166340
H 5.055302 -2.129630 -6.578492
H 3.397859 -3.679698 -6.054039
H 1.972858 -3.304854 -4.246045