90
H49 C37 N4
N 0.115815 -0.652942 -2.129375
N -2.055358 -0.515181 0.041310
H 4.223703 -0.200299 1.435344
H 4.091402 -1.484049 -0.692245
H -4.105380 -2.007844 1.856309
H 0.927603 -1.356885 4.924739
H -1.438030 -1.226694 4.214807
H 2.567084 0.143346 4.028723
H -4.279749 0.767055 -3.395051
H -4.522731 -0.780106 -3.372151
H -4.379751 0.010127 -2.026815
H -4.263153 2.915217 1.136407
H -4.359665 1.411958 0.703115
H -3.261446 -0.899701 3.867267
H -2.482384 0.982022 5.102529
H -2.115679 1.973598 1.158936
H -2.517836 2.397478 2.613847
H 3.067256 2.627584 3.531424
H 3.784547 1.345348 2.981252
H 5.135319 3.254321 2.528922
H 4.679368 2.624556 1.167112
H 3.963156 3.906793 1.716806
H 0.618805 2.857690 0.837506
H 1.992985 3.608563 0.765558
H 0.347410 3.566175 3.053038
H 1.722239 4.315534 2.980862
C 2.497238 0.926010 0.708982
C 3.575162 -0.023178 0.750421
C 3.547511 -0.727121 -0.401696
C 2.453413 -0.176078 -1.191405
C -4.060795 -0.045886 -2.929217
C -2.702403 -0.658998 1.248944
C -2.479595 0.320467 2.382492
C -1.029030 0.197845 2.843036
C -4.156281 2.008417 1.429279
C -0.657897 -0.718038 3.857020
C 0.651312 -0.767995 4.247758
C 1.556352 0.061598 3.628200
C 1.162351 0.919954 2.622131
C 2.115514 1.846434 1.855795
C -3.440702 0.007099 3.538881
C -3.373674 0.974453 4.729493
C -2.725523 1.770742 1.891921
C 3.352530 2.184024 2.702178
C 4.370107 3.071144 1.980959
C 1.396284 3.118074 1.363446
C 0.959249 4.033956 2.478628
N 1.816223 0.856372 -0.432525
N -0.130217 0.963856 2.227645
H 0.515391 4.804509 2.108426
H -4.357054 -0.005012 3.195137
H -3.998402 0.730722 5.414398
H -3.579072 1.876711 4.429751
H -4.760742 1.835837 2.157548
H 2.281499 -3.078140 -2.274182
H -0.309851 -3.766944 -2.414631
H -4.006986 -3.179568 -0.374503
H 3.974164 -1.626352 -2.784199
H 4.495105 -0.226035 -3.251967
H 4.390561 -1.670254 -5.073543
H 2.858537 -1.894304 -4.826613
H 3.379909 -0.492473 -5.295757
H 1.742579 0.798846 -4.354390
H 1.144375 1.334751 -3.007447
H 2.592771 2.960632 -3.924091
H 3.180574 2.471657 -2.556894
H 3.778778 1.935752 -3.902711
H -2.484048 -3.632211 -2.426928
H -3.748599 -2.776882 -2.779477
H -2.893859 -3.754834 -4.738073
H -2.778583 -2.197076 -4.856867
H -1.512951 -3.052404 -4.504796
H -2.246263 -0.332005 -3.876526
H -2.103933 0.459742 -2.530962
C 2.502247 -0.179105 -2.711610
C 1.476264 -1.099530 -2.129469
C 1.492948 -2.561915 -2.134830
C 0.173853 -2.944920 -2.214541
C -0.634795 -1.729294 -2.214669
C -2.144785 -1.599102 -2.222452
C -2.561424 -1.514326 -0.763368
C -3.487672 -2.289421 -0.073539
C -3.568389 -1.745946 1.217405
C 3.745500 -0.836119 -3.311263
C 3.588463 -1.258485 -4.751749
C 1.967569 1.050146 -3.442739
C 2.961649 2.196135 -3.473642
C -2.778623 -2.826840 -2.895012
C -2.467599 -2.982767 -4.376564
C -2.556781 -0.295672 -2.946672