119
Co1 Sn1 H59 C54 N4
C 0.135713 3.650849 -0.843765
C 1.015180 1.337757 2.185373
C 2.203810 2.018667 2.016641
C 0.743970 0.828325 3.441203
N 1.361270 -1.760135 0.850168
N 2.059927 0.023499 -1.170043
N -0.395838 -0.415838 -2.388503
N -1.075281 -2.216996 -0.384508
C 5.595224 1.261404 -0.670574
C 5.779538 2.583172 0.003972
C 4.060449 2.479283 -3.230427
C 3.556507 3.877402 -3.044406
H -6.396076 -2.817800 -1.028693
H -0.664495 -3.717753 2.465840
H 0.571490 -3.446140 4.469377
H 2.078934 -3.297190 4.885612
H 1.601086 -5.536434 4.757552
H 1.048846 -5.373717 3.300618
H 2.580810 -5.197231 3.583314
H -5.345136 0.894664 3.800278
H 5.877606 -2.978014 3.596872
H -3.872178 2.660775 3.817970
H 4.617349 -3.909259 3.550699
H 5.150694 -3.247124 2.234028
H 3.376815 1.817148 5.007966
H 1.424048 0.603024 5.323633
H -4.460202 -3.685209 -2.022793
H -4.792978 -4.468757 -0.706120
H -5.584153 -2.472338 0.266075
H -2.290431 -5.271080 1.960915
H -3.612410 -5.417525 1.129559
H -4.158753 -4.853021 3.263208
H -3.223648 -3.596340 3.205507
H -4.525244 -3.645156 2.334087
C 0.835351 -2.586240 1.820588
C 1.748416 -2.784004 2.929522
H 3.898352 2.629484 2.927534
C 3.095083 2.181385 3.063805
C 2.792462 1.681967 4.296581
C -3.131011 -3.305952 -0.527925
C 1.619309 0.973520 4.492822
C -2.532544 -3.750296 0.597482
C -1.276558 -3.060624 0.697486
C -0.400947 -3.187043 1.748017
C 1.485064 -3.593837 4.177471
C 1.698673 -5.057043 3.932267
C 5.025889 -3.124460 3.176838
C -4.503691 -3.611361 -1.056163
C -5.538342 -2.556200 -0.688946
C -3.042985 -4.782927 1.593339
C -3.804533 -4.165852 2.695861
Co 0.453540 -1.036918 -0.731130
Sn -0.399827 0.904302 0.612333
H 4.375509 -0.571046 1.008075
H 1.507715 1.740795 -3.868632
H -3.265601 -1.879044 -2.751026
H 3.931848 -1.890309 4.355856
H 4.614567 -1.139305 3.156206
H 3.790603 2.163861 -4.108061
H 2.595946 3.873647 -3.033959
H -1.218906 1.364042 -6.257866
H 0.270399 1.576826 -5.827461
H -0.765841 3.609544 -6.034304
H -1.854892 3.186478 -4.989253
H -0.368680 3.393004 -4.533403
H -3.027655 0.009731 -5.834233
H -3.513584 -1.115524 -4.857788
H -5.081238 0.624303 -4.928054
H -4.502596 0.495380 -3.477864
H -3.991681 1.634403 -4.427029
H -5.284356 -1.713823 -1.071591
H -2.999910 -1.017893 1.193369
H -4.897217 -0.947799 2.488188
H -1.976625 2.596940 2.537403
H -2.684433 2.180133 -0.956390
H -3.220763 4.088935 -2.157586
H -1.655902 5.714859 -2.503991
H 0.466044 5.447001 -1.715169
H 1.002551 3.555722 -0.522599
H 2.410445 2.375394 1.183511
H -0.054527 0.372716 3.578874
C 2.864427 -2.093081 2.592650
H 6.176017 1.225106 -1.446740
C 2.640031 -1.453475 1.331552
H 5.874143 0.560467 -0.061813
C 3.519114 -0.641139 0.651598
H 6.708053 2.713346 0.206441
C 3.277869 0.069811 -0.479681
H 5.477591 3.284109 -0.578334
C 4.179784 0.982281 -1.114014
H 5.269457 2.600695 0.817931
C 3.557347 1.512991 -2.191613
C 2.231259 0.902174 -2.230473
H 5.029571 2.490548 -3.206079
C 1.294801 1.123720 -3.205376
H 3.866316 4.428138 -3.766939
C 0.079032 0.515407 -3.286076
C -0.852654 0.729443 -4.364603
H 3.884268 4.226619 -2.212361
C -1.921896 -0.070376 -4.121781
C -1.639290 -0.766307 -2.895647
C -2.467399 -1.691293 -2.312893
C -2.228223 -2.367197 -1.142487
C 4.149995 -1.951641 3.413251
C -0.648734 1.654430 -5.528329
C -0.934157 3.087596 -5.246319
C -3.203676 -0.196795 -4.904422
C -4.294834 0.724437 -4.387159
C -2.254602 0.764490 1.731142
C -3.160831 -0.274399 1.727287
C -4.305137 -0.230590 2.499355
C -4.573980 0.865876 3.281130
C -3.695526 1.914778 3.290760
C -2.559086 1.872221 2.525993
C -0.771914 2.653265 -0.584252
C -2.036642 2.833506 -1.094283
C -2.361298 3.983794 -1.820001
C -1.428574 4.946331 -2.030939
C -0.178704 4.794879 -1.561116