82
Mn1 H27 C47 N4 O3
Mn 0.557259 1.484096 0.342253
H -1.252891 -2.022246 3.448905
H -4.321141 2.140351 1.514463
H -4.079142 3.199191 -0.710084
H -0.377296 2.075115 -4.526152
H 1.395894 0.358890 -4.544509
H 3.946413 -2.797558 -1.628609
H 3.477082 -4.375782 0.186245
H -3.709544 -1.510389 2.873004
H -5.273002 -1.678499 4.575982
H -5.553134 0.054035 6.064312
H -4.303541 1.981023 5.861204
H -2.748883 2.179242 4.143213
H -4.331407 3.086282 -5.500883
H -3.095014 1.804132 -4.028165
H -1.813155 5.147508 -2.237475
H 2.076423 -2.581775 -4.080746
H -3.024615 6.404567 -3.745206
H 3.622281 -3.057249 -5.741840
H -4.269808 5.388381 -5.383101
H 5.567070 -1.829045 -5.898902
H 5.961602 -0.110312 -4.417183
H 4.428943 0.356381 -2.729339
H 1.957624 -5.901314 1.259993
H 1.988424 -7.801958 2.570964
H 1.016029 -7.779376 4.668263
H 0.103768 -5.824787 5.496221
H 0.137501 -3.890271 4.234716
C 0.473366 -1.432607 0.882626
C 0.156567 -2.345920 1.939616
C -0.824627 -1.697317 2.678877
C -1.053426 -0.442767 2.043409
C -2.053687 0.491872 2.242189
C -2.291285 1.530640 1.294339
C -3.549678 2.141606 0.978007
C -3.417679 2.723717 -0.241765
C -2.071287 2.470298 -0.677984
C -1.552090 2.543062 -1.989700
C -0.452096 1.781550 -2.418631
C -0.037031 1.617204 -3.779057
C 0.941230 0.678800 -3.787372
C 1.155362 0.257272 -2.423916
C 2.101357 -0.785259 -2.118141
C 2.245089 -1.681008 -1.059640
C 3.226284 -2.726048 -1.030099
C 2.974018 -3.606742 -0.011838
C 1.834425 -3.166395 0.687300
C 1.021896 -3.471251 1.793975
C -3.048081 0.341326 3.346610
C -3.821010 -0.799059 3.477092
C -4.753805 -0.899423 4.491812
C -4.922471 0.130562 5.371613
C -4.180341 1.274712 5.252458
C -3.249013 1.387621 4.233191
C -2.322085 3.343465 -2.979323
C -3.809277 3.506556 -4.842054
C -3.077414 2.741281 -3.960704
C -2.316219 4.718451 -2.904666
C 3.091351 -1.054988 -3.236202
C -3.042215 5.467418 -3.802727
C 2.866952 -2.074937 -4.140805
C 3.789480 -2.360974 -5.132362
C -3.781410 4.870252 -4.769838
C 4.939341 -1.632081 -5.227143
C 5.174006 -0.619659 -4.345915
C 4.252944 -0.334876 -3.340716
C 1.061496 -4.686910 2.598612
C 1.592426 -5.872460 2.126123
C 1.598293 -7.012846 2.899577
C 1.032163 -6.996536 4.148707
C 0.489499 -5.833569 4.638542
C 0.504166 -4.683146 3.884751
C 0.942696 3.194173 -0.125356
C 2.319889 1.097820 0.384981
C 0.732964 1.962205 2.067030
N -0.148937 -0.301254 0.927804
N -1.402784 1.815548 0.295774
N 0.326407 0.957938 -1.607877
N 1.448840 -1.959769 0.076290
O 1.136002 4.298428 -0.361403
O 3.453616 0.941001 0.487219
O 0.925096 2.255770 3.156708