91
Mn1 H33 C50 N4 O3
H -1.579372 3.452962 -3.155420
H -0.639897 -1.074953 -4.967273
H 1.086186 -2.749151 -4.651181
H 4.829915 -4.777204 -4.553262
H 0.125609 1.545268 -5.127130
H -0.720015 2.272238 -7.152926
H -3.027558 2.296310 -7.499882
H -4.442394 1.702939 -5.794306
H 3.436389 -3.089767 -3.892761
C -0.177551 -1.214570 -4.160604
C 0.763715 -2.167815 -3.987502
C -1.639832 1.176969 -4.270031
C -0.804019 1.568136 -5.264595
C -1.304267 1.997819 -6.467846
C -2.677632 2.026705 -6.669870
C -3.511973 1.664424 -5.666399
C -3.003376 1.240759 -4.461405
H 2.649617 -4.056252 1.387874
H 5.005566 -4.561761 2.207480
Mn -1.667012 0.049443 0.617599
H 0.863908 1.429723 4.704157
H -0.271149 3.484256 4.021701
H -1.796091 4.743214 -1.086162
H 2.532180 -3.092175 2.634430
H 4.506813 -2.881546 0.602707
H 4.354790 -1.816366 1.766779
H 2.628231 -5.054031 -0.504366
H 4.021519 -6.757114 -1.176306
H 4.853525 -3.497785 3.369508
H 5.203678 -6.599443 -3.196802
H 0.236891 -2.398905 4.538821
H 1.426010 -3.207719 6.339879
H 3.583526 -2.442234 6.726765
H 4.479910 -0.852289 5.373826
H 3.311966 -0.008570 3.573864
H -3.464458 4.852741 1.193280
H -3.667400 7.115495 1.440606
H 0.208172 7.374267 2.292041
H 0.432588 5.098273 2.083616
H -3.587207 0.994023 -3.767982
C 0.677151 -1.209756 -0.690824
C 1.664906 -2.227995 -0.450720
C 1.820231 -2.262899 0.922437
C 0.965624 -1.244660 1.439576
C 0.868549 -0.638049 2.684295
H -1.814785 8.396117 1.977238
C 0.154946 0.557118 2.896754
C 0.371373 1.552490 3.913471
C -0.242196 2.674238 3.545230
C -0.856418 2.397412 2.268627
C -1.335087 3.295292 1.289993
C -1.484458 2.907735 -0.061816
C -1.639859 3.818854 -1.151660
C -1.522647 3.111142 -2.281410
C -1.298661 1.755897 -1.929370
C -1.092031 0.752100 -2.919901
C -0.389690 -0.437049 -2.971375
C 1.179065 -2.140133 -2.639106
C 1.977166 -2.802109 -1.753053
C 2.767958 -3.130689 1.683788
C 4.232045 -2.759983 1.535226
C 5.115778 -3.627773 2.445484
C 1.636852 -1.155594 3.848034
C 1.107693 -2.082360 4.695494
C 3.078265 -4.985426 -1.327468
C 1.811484 -2.566205 5.770974
C 3.914330 -6.001258 -1.724784
C 3.084963 -2.105229 6.003879
C 4.608118 -5.921821 -2.935889
C 3.614233 -1.171241 5.197260
C 4.395491 -4.837384 -3.722921
C 2.926199 -0.669343 4.120154
H 6.044479 -3.372612 2.332878
C -1.490718 4.733585 1.582940
C -2.707339 5.363064 1.414190
C -2.830375 6.705070 1.560359
C -1.737107 7.464537 1.884180
C -0.542900 6.854315 2.067756
C -0.402464 5.502681 1.935555
C 2.887698 -3.875713 -2.107699
C 3.560313 -3.831180 -3.326624
C -3.232615 0.691921 1.151764
C -2.548915 -0.840253 -0.696895
C -2.001017 -1.326504 1.742781
N 0.194585 -0.635642 0.349671
N -0.652140 1.103549 1.972789
N -1.300585 1.629519 -0.575506
N 0.430881 -1.114672 -2.040221
O -4.255979 1.066238 1.574967
O -3.182688 -1.384277 -1.477065
O -2.292602 -2.173833 2.443411