143
H60 Ru1 C74 Se4 S2 N2
H -4.612995 -1.162638 -2.033016
C 1.359562 2.815930 -0.242275
C 2.579142 2.405273 0.432695
C -2.584631 3.359916 -2.647380
C -1.860020 3.687908 -3.796646
C -3.866425 3.871903 -2.513967
H 4.310159 -1.055974 2.624511
C -2.420862 4.485221 -4.754910
H 0.588290 -4.885211 1.594036
C -4.379692 4.703882 -3.469928
H -1.703569 -4.834546 0.657623
C -3.666974 5.021208 -4.623965
H 0.996341 -3.362583 3.909528
C -4.279966 5.941185 -5.690494
H 4.379692 -3.647909 1.772271
C 3.433671 3.522579 0.977693
H 1.933213 -4.669217 5.524201
C 2.911256 4.455889 1.810918
H -5.161028 -3.026591 -0.062518
C 3.715465 5.495863 2.286681
H 3.679783 -6.010516 6.436804
H 4.423608 -6.813163 5.315575
H -6.435503 -4.730548 -0.942052
H 5.225987 -5.069207 3.347061
H -2.018300 -4.405223 -2.064267
C 4.771275 3.642576 0.639049
H -5.324798 -7.623809 -2.352956
H 5.118027 -5.578527 5.984919
C -1.127448 2.107414 2.622797
H -6.660572 -6.829163 -2.151482
H -3.331201 -6.127847 -2.850247
C 5.532483 4.679883 1.158340
H -5.869172 -6.701166 -3.498346
C 0.442818 0.519987 -3.651089
C 4.999089 5.626526 1.972747
C 1.552609 1.285301 -3.414614
C 5.786829 6.805163 2.547537
C -0.303751 0.647984 -4.825843
C 1.973469 2.165279 -4.408622
H 0.807869 -2.930593 -2.220606
C 0.251601 1.519962 -5.851529
H 1.915829 -1.831954 -2.128040
C 1.318391 2.266610 -5.605088
H -2.015555 -1.218636 2.611793
C -0.285453 6.101181 6.037061
H 1.110705 -0.202662 4.946222
C 1.096067 6.029183 5.896749
H -2.720039 -2.698599 4.254700
C 1.676122 4.917210 5.297265
H 0.148216 -1.554628 6.689482
C 0.875572 3.877236 4.839428
C -0.505032 3.949235 4.979677
H -1.623972 -2.863928 6.251311
C -1.086003 5.061207 5.579224
H 0.673377 -6.845162 -6.438666
Se 0.266423 0.721582 2.371856
H -1.631291 -6.725165 -6.203732
Se -1.673652 2.505804 4.457104
H -2.600185 -4.869212 -5.202580
S -2.248766 0.279460 0.061021
H -1.263496 -3.133255 -4.437823
N 0.238792 2.032749 -0.483584
H 2.010065 -5.109206 -5.673909
C -3.012811 -1.143971 -0.654409
C -3.947853 -0.634651 -1.656708
C 3.778594 -0.631984 1.990049
C 2.692591 -1.322634 1.286261
C 2.003661 -2.447939 1.605206
C 0.713633 -2.834596 1.081942
C 0.163770 -4.146563 1.220662
C -1.112535 -4.117230 0.699245
C -1.359562 -2.815930 0.242275
C -2.579142 -2.405273 -0.432695
C 2.584631 -3.359916 2.647380
C 1.860020 -3.687908 3.796646
C 3.866425 -3.871903 2.513967
C 2.420862 -4.485221 4.754910
C 4.379692 -4.703882 3.469928
C 3.666974 -5.021208 4.623965
C -4.771275 -3.642576 -0.639049
C 4.279966 -5.941185 5.690494
C -3.433671 -3.522579 -0.977693
C -5.532483 -4.679883 -1.158340
C -2.911256 -4.455889 -1.810918
C -4.999089 -5.626526 -1.972747
C -5.786829 -6.805163 -2.547537
C -3.715465 -5.495863 -2.286681
C 1.127448 -2.107414 -2.622797
C -0.442818 -0.519987 3.651089
C -1.552609 -1.285301 3.414614
C 0.303751 -0.647984 4.825843
C -1.973469 -2.165279 4.408622
C -0.251601 -1.519962 5.851529
C -1.318391 -2.266610 5.605088
C 0.285453 -6.101181 -6.037061
C -1.096067 -6.029183 -5.896749
C -1.676122 -4.917210 -5.297265
C -0.875572 -3.877236 -4.839428
C 0.505032 -3.949235 -4.979677
C 1.086003 -5.061207 -5.579224
Se -0.266423 -0.721582 -2.371856
Se 1.673652 -2.505804 -4.457104
S 2.248766 -0.279460 -0.061021
N -0.238792 -2.032749 0.483584
H -4.310159 1.055974 -2.624511
H -0.588290 4.885211 -1.594036
H 1.703569 4.834546 -0.657623
H -5.225987 5.069207 -3.347061
H 4.612995 1.162638 2.033016
H -0.996341 3.362583 -3.909528
H -5.118027 5.578527 -5.984919
H -4.379692 3.647909 -1.772271
H -1.933213 4.669217 -5.524201
H -3.679783 6.010516 -6.436804
H -4.423608 6.813163 -5.315575
H 2.018300 4.405223 2.064267
H 3.331201 6.127847 2.850247
H 5.161028 3.026591 0.062518
H 6.435503 4.730548 0.942052
H -0.807869 2.930593 2.220606
H 5.324798 7.623809 2.352956
H -1.915829 1.831954 2.128040
H 6.660572 6.829163 2.151482
H 2.015555 1.218636 -2.611793
H 5.869172 6.701166 3.498346
H -1.110705 0.202662 -4.946222
H 2.720039 2.698599 -4.254700
H -0.148216 1.554628 -6.689482
H 1.623972 2.863928 -6.251311
H -0.673377 6.845162 6.438666
H 1.631291 6.725165 6.203732
H 2.600185 4.869212 5.202580
H 1.263496 3.133255 4.437823
H -2.010065 5.109206 5.673909
Ru 0.000000 -0.000000 0.000000
C 3.012811 1.143971 0.654409
C 3.947853 0.634651 1.656708
C -3.778594 0.631984 -1.990049
C -2.692591 1.322634 -1.286261
C -2.003661 2.447939 -1.605206
C -0.713633 2.834596 -1.081942
C -0.163770 4.146563 -1.220662
C 1.112535 4.117230 -0.699245