78
H30 Pd1 C44 S1 N2
H -0.891655 -2.837068 4.421136
H -6.013560 2.513413 4.139407
H 4.517065 -2.257068 0.430297
H 0.594137 1.930046 -4.271910
H -4.521499 2.133761 2.409998
H -1.509167 0.659769 -5.143963
H 8.530896 0.546968 -3.882330
H -5.048109 0.922411 0.410291
H 9.041832 -0.661015 -2.968408
H 8.407080 -0.959854 -4.405410
H 3.476384 -2.752888 2.623099
H -4.378876 4.298871 -4.632228
H 2.932534 -1.502815 4.638032
H -4.714276 -0.820957 6.017278
H 5.375940 0.126068 -0.208647
H 2.753863 1.095822 -3.681973
H -3.181466 -1.190507 4.310354
H -4.457240 1.424124 -1.944155
H 3.887014 -1.278054 -3.698329
H -2.480887 1.640466 -7.012827
H 6.024798 -1.219128 -4.626294
H -6.149914 1.026794 5.939543
H 7.507455 0.191729 -1.142819
H -4.965042 3.228101 -7.497381
H 3.178599 -2.543280 6.709632
H -4.394549 4.646534 -7.028714
H 1.393455 -3.757997 7.627468
H -3.515299 3.706244 -7.976535
H -0.637753 -3.887634 6.473704
Pd -0.153069 -0.106690 0.435947
C 0.852583 -1.439680 2.966203
C -2.333405 1.905633 -3.753205
C -2.974113 0.589900 0.724168
C -0.061147 -2.778984 4.879260
C -2.715354 0.197621 2.067050
C 3.024691 -0.552423 -1.288406
C -1.680158 1.270916 -2.576932
C 1.878375 -1.496080 2.000184
C -3.188519 3.006708 -3.628772
C 3.679662 -1.929607 0.735279
C 0.731275 1.348362 -3.533333
C -2.086243 1.406446 -5.034827
C 0.999281 -2.060086 4.304817
C -4.175285 0.905575 0.036100
C 3.112929 -2.198142 1.942647
C -3.545234 3.072368 -6.029612
C 4.400615 -0.564208 -1.861737
C 2.203744 -1.986850 5.008853
C -3.689895 0.414806 3.157659
C -0.329311 0.911468 -2.703293
C -5.445574 1.752426 4.168416
C -2.430420 1.041947 -1.401725
C 8.363196 -0.380695 -3.616276
C -3.787851 3.563979 -4.742048
C 2.797904 -1.066762 -0.000213
C -4.671959 -0.219070 5.283060
C -4.553785 1.527665 3.141783
C 5.499286 -0.139941 -1.111522
C 1.970531 0.870219 -3.193142
C -1.461678 -0.335238 2.331939
C 2.004385 0.017476 -2.067098
C -3.764968 -0.442147 4.262479
C -3.848661 1.180844 -1.256495
C 4.617528 -0.971639 -3.173926
C -2.674447 1.987288 -6.149520
C 6.989309 -0.485920 -2.988926
C 5.896751 -0.934600 -3.729585
C -4.159455 3.719712 -7.237797
C -5.522841 0.876954 5.242075
C 6.773963 -0.101218 -1.670101
C 2.354204 -2.607256 6.240455
C 1.293148 -3.324470 6.788448
C 0.087902 -3.401916 6.100604
C -0.339185 -0.834426 2.598497
S 0.336318 -0.329346 -1.673103
N -1.925596 0.684182 -0.154983
N 1.707226 -0.810013 0.821740
H -3.358570 3.374574 -2.770903