170
Ga2 H72 C78 N10 O8
H -0.583427 6.644535 -7.342132
H 1.142080 -3.648715 7.138780
H -0.411248 8.211171 -7.010913
H -0.304720 4.968563 -7.261144
C -1.096248 -3.022842 0.272050
H -1.142080 3.648715 -7.138780
C -3.208229 2.555350 4.103705
C -2.129323 7.661365 2.339457
C -1.789920 8.895305 2.546075
H 4.645120 -4.078251 0.077584
H 6.904506 -3.818968 0.437447
H 7.634100 -2.975515 2.500326
H 6.031224 -2.458509 4.115421
H -4.645120 4.078251 -0.077584
O -0.157686 -3.382403 1.036317
H 3.807760 -2.742784 3.630326
H -6.904506 3.818968 -0.437447
O -2.280073 -2.968642 0.674201
H -7.634100 2.975515 -2.500326
O -2.529423 -3.250574 3.254138
H -6.031224 2.458509 -4.115421
H 2.580209 -4.949820 -2.689164
H -3.807760 2.742784 -3.630326
O -2.358482 -2.134561 5.157578
H 1.207731 1.833729 4.792505
C -1.425742 -0.181186 -3.647497
H 1.641276 0.574798 5.619063
C -1.780010 -0.724901 -2.447117
H 0.158553 0.720059 5.129372
H 2.748672 2.291381 1.588161
H 1.938563 2.706859 2.863910
C 1.871674 -7.555152 0.203312
H 2.405553 -2.414775 -4.610745
H 0.361700 3.450348 1.579674
C 1.799829 -6.471159 1.143380
H 3.495608 -3.465967 -4.206083
H 0.066890 1.978991 1.143825
C 1.524838 -6.594553 2.486723
H 3.895707 -1.964933 -4.420580
C 1.326646 -5.580847 3.407548
H 2.443952 -7.166227 -3.060959
C -1.871674 7.555152 -0.203312
H 0.304720 -4.968563 7.261144
C 0.922830 -5.768281 4.799157
H 1.471574 -9.413873 -1.841479
C -1.799829 6.471159 -1.143380
C 0.797722 -4.528093 5.352870
H 1.864241 -9.260802 -3.396681
C -1.524838 6.594553 -2.486723
C 1.128454 -3.572180 4.299273
C -1.326646 5.580847 -3.407548
C 1.112351 -2.200788 4.446357
C -0.922830 5.768281 -4.799157
C 1.408400 -1.263618 3.463780
H 2.353527 3.217617 -2.367681
C -0.797722 4.528093 -5.352870
C -1.077668 -0.890312 -4.908035
C -1.128454 3.572180 -4.299273
C -1.908835 -2.166893 -2.058812
C -1.112351 2.200788 -4.446357
C -0.750651 -2.666249 -1.161019
C 1.995543 -0.379554 1.541223
C -1.408400 1.263618 -3.463780
C 2.409269 -0.248350 0.236379
H 3.839966 0.137452 -3.432532
H 3.665309 0.829395 -2.033084
C -1.995543 0.379554 -1.541223
H 1.438129 0.292085 -3.737922
C -2.409269 0.248350 -0.236379
H 1.366285 1.133976 -2.411606
C 1.797352 -9.026509 0.595359
C 0.699865 -7.077195 5.416209
C 0.549982 -7.338041 6.724364
C 0.434783 -4.167283 6.748785
C -1.797352 9.026509 -0.595359
C -0.699865 7.077195 -5.416209
C -0.549982 7.338041 -6.724364
C -0.434783 4.167283 -6.748785
C 1.425742 0.181186 3.647497
C 1.780010 0.724901 2.447117
C 4.931259 -3.739308 0.894332
C 6.295066 -3.590923 1.102293
C 6.727372 -3.094223 2.325924
C 2.583925 -1.274551 -0.682640
C 5.773574 -2.781833 3.282487
C -4.931259 3.739308 -0.894332
H 0.375326 3.653401 -6.745859
C 4.439496 -2.956771 2.982083
C 2.962967 -1.074622 -2.060733
C -6.295066 3.590923 -1.102293
H -2.353527 -3.217617 2.367681
C 2.940671 -2.278885 -2.662881
C -6.727372 3.094223 -2.325924
C 2.580209 -3.250418 -1.643296
C -5.773574 2.781833 -3.282487
C 2.453862 -4.624934 -1.826561
C -4.439496 2.956771 -2.982083
N 2.370869 -2.608300 -0.444613
C 2.156574 -5.555856 -0.840389
N 1.984395 -5.261741 0.492609
C 2.046330 -7.002222 -1.033877
H -3.839966 -0.137452 3.432532
N 1.455471 -4.234915 3.139880
H -3.665309 -0.829395 2.033084
N 1.757589 -1.577882 2.172158
H -1.438129 -0.292085 3.737922
N -2.370869 2.608300 0.444613
N 4.009667 -3.419890 1.803291
H -1.366285 -1.133976 2.411606
N -1.984395 5.261741 -0.492609
C 1.077668 0.890311 4.908035
N -1.455471 4.234915 -3.139880
C 1.908835 2.166893 2.058812
N -1.757589 1.577882 -2.172158
N -4.009667 3.419890 -1.803291
C 0.750651 2.666249 1.161019
H -2.580209 4.949820 2.689164
C 3.208229 -2.555350 -4.103705
H -0.375326 -3.653401 6.745859
C 2.129323 -7.661365 -2.339457
C 1.789920 -8.895305 -2.546075
H -2.405553 2.414775 4.610745
H -3.495608 3.465967 4.206083
H -3.895707 1.964933 4.420580
H -2.443952 7.166227 3.060959
H -1.471574 9.413873 1.841479
H -1.864241 9.260802 3.396681
C 3.234242 0.251474 -2.682173
C 1.926176 0.910617 -3.171647
C 2.260625 2.160177 -3.947312
H -2.591358 -0.613846 0.059931
C 1.096248 3.022842 -0.272050
Ga 1.831788 -3.420671 1.322634
H 1.465380 -7.462997 2.814117
Ga -1.831788 3.420670 -1.322634
H 0.880715 -1.871216 5.283636
C -2.583925 1.274551 0.682640
H -1.465380 7.462997 -2.814117
C -2.962967 1.074622 2.060733
H -0.880715 1.871216 -5.283636
C -2.940671 2.278885 2.662881
C -2.580209 3.250418 1.643296
C -3.234242 -0.251474 2.682173
C -2.453862 4.624934 1.826561
C -1.926176 -0.910617 3.171647
H -1.207731 -1.833729 -4.792505
C -2.156574 5.555856 0.840389
C -2.260625 -2.160177 3.947312
H -1.641276 -0.574798 -5.619063
C -2.046330 7.002222 1.033877
O 0.157686 3.382403 -1.036317
H -0.158553 -0.720059 -5.129372
H -2.748672 -2.291381 -1.588161
O 2.280073 2.968642 -0.674201
O 2.529423 3.250574 -3.254138
H -1.938563 -2.706859 -2.863910
H -0.361700 -3.450348 -1.579674
H 2.161529 -9.565382 -0.111196
O 2.358482 2.134561 -5.157578
H -0.066890 -1.978991 -1.143825
H 0.881953 -9.271735 0.747182
H 2.303979 -9.168647 1.398724
H 0.656510 -7.806626 4.839191
H -2.161529 9.565382 0.111196
H 0.583427 -6.644535 7.342132
H -0.881953 9.271735 -0.747182
H 0.411248 -8.211171 7.010913
H -2.303979 9.168646 -1.398724
H 2.591358 0.613846 -0.059931
H -0.656510 7.806626 -4.839191