101
Sn1 H38 C56 N4 O2
H 1.964823 -3.888239 -2.808023
H 3.931374 -2.935863 -1.673878
N 1.686178 0.859619 0.922022
H -5.482909 -0.509084 1.071355
H -4.683189 -0.877955 -2.003244
C -0.814073 2.344808 1.880668
H -3.234394 -2.459136 -3.208434
C -1.965578 3.141870 2.237151
H -2.057964 -4.715501 -2.429854
C -3.047611 2.623078 1.606057
H -2.320084 -6.318254 -4.105261
H -1.107203 -6.145683 -6.079315
H 0.307035 -4.358495 -6.420237
H 0.564834 -2.739564 -4.771302
N -1.236308 1.371939 1.008377
C 0.814073 -2.344808 -1.880668
C 1.965578 -3.141870 -2.237151
C -2.962572 -0.344063 -0.858603
C 3.047611 -2.623078 -1.606057
C -3.768142 -1.020326 -1.844728
C -2.973503 -1.896123 -2.502984
C -1.650975 -1.808759 -1.923731
C -0.507364 -2.534636 -2.347280
C -0.710521 -3.563590 -3.417680
C -1.575809 -4.636766 -3.233066
C -1.729413 -5.597770 -4.232607
C -1.012537 -5.489913 -5.413398
C -0.169488 -4.431838 -5.612613
N 1.236308 -1.371939 -1.008377
C -0.014292 -3.465440 -4.624434
H 4.706499 -2.701814 1.232241
H 6.966284 -3.248648 1.216601
H 8.476199 -1.959759 0.029717
H 7.742675 -0.067950 -1.096336
N -1.686178 -0.859619 -0.922022
H 1.494943 -3.263748 1.641628
H 3.008494 -3.778225 3.338431
H 3.197576 -2.405208 5.197865
H 1.810005 -0.557620 5.399424
H 0.263540 -0.048536 3.733950
C 2.597094 -1.503524 -0.807947
C 3.399274 -0.708619 0.032290
C 4.867465 -1.049447 0.072664
C 5.316108 -2.165765 0.757186
C 6.665656 -2.493650 0.744733
C 7.566407 -1.723552 0.047430
C 7.127439 -0.601841 -0.626290
C 5.776601 -0.257778 -0.614699
C 0.717825 -1.605988 2.513559
C 1.548117 -2.713678 2.402584
C 2.462630 -3.016756 3.415306
C 2.570238 -2.208908 4.526543
C 1.745717 -1.107690 4.641127
C 0.820235 -0.801376 3.643142
O -0.208842 -1.348211 1.547411
H -4.706499 2.701814 -1.232241
H -6.966284 3.248648 -1.216601
H -8.476199 1.959759 -0.029717
H -7.742675 0.067950 1.096336
H -1.494943 3.263748 -1.641628
H -3.008494 3.778225 -3.338431
H -3.197576 2.405208 -5.197865
H -1.810005 0.557620 -5.399424
H -0.263540 0.048536 -3.733950
C -2.597094 1.503524 0.807947
C -3.399274 0.708619 -0.032290
C -4.867465 1.049447 -0.072664
C -5.316108 2.165765 -0.757186
C -6.665656 2.493650 -0.744733
C -7.566407 1.723552 -0.047430
C -7.127439 0.601841 0.626290
C -5.776601 0.257778 0.614699
O 0.208842 1.348211 -1.547411
Sn 0.000000 0.000000 0.000000
C -0.717825 1.605988 -2.513559
C -1.548117 2.713678 -2.402584
C -2.462630 3.016756 -3.415306
C -2.570238 2.208908 -4.526543
C -1.745717 1.107690 -4.641127
C -0.820235 0.801376 -3.643142
H 5.482909 0.509084 -1.071355
H 4.683189 0.877955 2.003244
H 3.234394 2.459136 3.208434
H 2.057964 4.715501 2.429854
H 2.320084 6.318254 4.105261
H 1.107203 6.145683 6.079315
H -0.307035 4.358495 6.420237
H -0.564834 2.739564 4.771302
H -1.964823 3.888239 2.808023
H -3.931374 2.935863 1.673878
C 2.962572 0.344063 0.858603
C 3.768142 1.020326 1.844728
C 2.973503 1.896123 2.502984
C 1.650975 1.808759 1.923731
C 0.507364 2.534636 2.347280
C 0.710521 3.563590 3.417680
C 1.575809 4.636766 3.233066
C 1.729413 5.597770 4.232607
C 1.012537 5.489913 5.413398
C 0.169488 4.431838 5.612613
C 0.014292 3.465440 4.624434