12
H6 C6
C -0.692433 -0.718497 -0.881460
H 1.347704 -1.101175 1.479221
C -0.791528 0.671639 -0.869025
H -0.153599 2.310124 0.014337
H 0.153599 -2.310124 -0.014337
C 0.791528 -0.671638 0.869025
C -0.099096 1.380764 0.003617
H 1.181718 1.202701 1.504812
C 0.099096 -1.380764 -0.003617
C 0.692433 0.718497 0.881460
H -1.181718 -1.202701 -1.504812
H -1.347704 1.101175 -1.479221