131
Lu1 Fe2 H44 C72 N12
N -1.127540 1.884490 -2.841085
Lu 0.085184 -0.243529 0.009557
Fe -6.137051 -1.266637 -3.028861
N 0.516857 1.850570 -1.086346
N 2.361095 2.740016 0.220843
N 2.439127 0.329843 0.184168
H -2.100094 3.644538 1.002243
C -0.982894 4.982476 -2.338018
N 3.468779 -1.873044 0.208834
H -4.180333 3.030217 -0.455493
C -0.661247 6.254460 -1.888182
H -5.055822 0.944164 -1.422977
N 1.422798 -1.940883 -1.088826
C 0.299888 6.469284 -0.939777
H -3.641717 -4.173921 -0.992506
C 1.038344 5.440390 -0.384697
N -0.113114 -2.779450 -2.762886
H 5.280661 0.213009 6.353748
H -1.740382 -5.347914 0.113495
H 0.374115 -4.599800 1.381626
H 2.144125 -4.062740 3.211838
H 5.815471 3.033986 3.653306
H 5.143628 3.376950 0.990129
H 6.182796 3.220543 6.141533
H 1.247701 3.062252 4.228382
H 7.330448 2.626951 1.361585
H -0.537536 4.247552 3.003193
H 7.844322 0.375069 1.438480
Fe 3.805462 2.232165 5.287603
H 6.211344 -1.224803 1.052320
H -4.047106 -2.935857 -3.366904
H -6.395701 -3.928946 -3.439433
H -7.729871 -2.862364 -1.567054
H -6.233926 -1.271914 -0.304173
H -4.968273 1.036501 -3.834543
H -7.065641 1.217405 -2.439166
H -8.702425 -0.550181 -3.275140
H -7.661354 -1.695908 -5.236056
H 2.992969 -1.999300 4.269962
H -5.347017 -0.780080 -5.561944
H 3.478295 3.863131 3.110483
H -1.668059 -3.165756 -5.233358
H -2.855680 -2.227315 -7.026642
H -3.217295 0.073562 -7.141321
H 1.356185 1.381350 6.066169
H -2.534032 1.518912 -5.390324
H 3.295584 1.113762 7.679418
H -1.645220 4.835491 -3.004195
H 4.566947 0.041527 3.899114
H 4.039750 4.157100 7.170379
H 2.362998 4.552828 5.312589
H 4.190106 -4.729825 0.175880
H 3.784716 -6.910098 -0.606684
H 2.003286 -7.373666 -2.015313
H 0.589180 -5.632462 -2.755452
C -1.795576 2.745670 0.996264
C -2.484548 1.876952 0.175428
C -3.755911 2.180344 -0.435296
C -4.227914 1.049692 -0.967773
C -3.243940 0.007607 -0.725095
C -3.419038 -1.330331 -1.021931
C -2.553065 -2.359224 -0.563995
C -2.869002 -3.774424 -0.611374
C -1.837447 -4.409473 0.002668
C -0.920087 -3.405077 0.451940
C 0.151436 -3.682087 1.278833
C 0.950796 -2.773797 1.983376
C 1.892898 -3.173294 2.993044
C 2.351578 -2.052064 3.571711
C 1.677832 -0.938371 2.932202
C 1.738736 0.401451 3.356539
C 0.891795 1.413385 2.887792
C 0.747149 2.723057 3.496399
C -0.227308 3.367528 2.832524
C 5.181693 3.361875 4.280913
C 5.391049 3.452327 5.668570
C -0.716441 2.466775 1.809438
C -4.677078 -1.846662 -1.654489
C -4.753207 -2.736108 -2.762929
H -1.125637 7.000690 -2.248229
C -6.075957 -3.286359 -2.816981
H 0.467373 7.358730 -0.650099
H 1.727316 5.596797 0.251729
C -6.816317 -2.692767 -1.764184
C -5.978892 -1.801436 -1.051690
C -5.754310 0.512632 -3.936364
C -6.917188 0.608737 -3.152927
C -7.840259 -0.374930 -3.634097
C -7.255965 -1.013748 -4.712709
C 5.351081 2.449816 1.002061
C -5.971279 -0.497417 -4.903209
C 6.635766 1.991902 1.227351
C 6.949800 0.644541 1.261198
C 5.998182 -0.299553 1.046764
C -0.657440 -1.582843 -3.026723
C -1.470123 -1.375557 -4.231345
C 2.654193 0.669039 4.535135
C -1.862190 -2.234852 -5.261905
C 2.222158 1.064767 5.840399
C -2.541645 -1.671411 -6.324747
C 3.305100 0.921551 6.747906
C -2.773840 -0.286362 -6.382121
C 4.422301 0.427833 6.002133
C -2.374160 0.582355 -5.347883
C 4.013105 0.310999 4.620140
C -1.738479 -0.003699 -4.270960
C 3.868459 3.817905 3.976156
C -1.121830 0.580471 -3.073623
C -0.356729 2.468660 -1.921997
C -0.271083 3.930970 -1.753187
C 4.184396 3.989387 6.245145
C 3.242294 4.209864 5.207641
C 0.707181 4.155216 -0.820428
C 1.259120 2.849313 -0.464188
C 2.951098 1.554716 0.402365
C 4.386139 1.477455 0.797282
C 4.694464 0.141401 0.816628
C 3.453553 -0.572794 0.410243
C 2.515257 -2.498671 -0.497553
C 2.597096 -3.917640 -0.816831
C 3.459263 -4.912613 -0.403357
C 3.209939 -6.203441 -0.876534
C 2.153642 -6.482335 -1.725646
C 1.306701 -5.457211 -2.157860
C 1.546509 -4.177689 -1.682757
C 0.849924 -2.913244 -1.865318
N -2.168611 0.559742 -0.039889
N -1.344509 -2.165129 0.069883
N 0.848021 -1.424552 1.934594
N -0.008436 1.285244 1.845290
N -0.499471 -0.408849 -2.350642