93
Mo1 H33 C50 S1 N4 O4
Mo 0.226876 0.482163 0.842576
H 0.365046 -4.627969 1.556143
H -1.931237 -3.999169 2.142536
H -4.879665 0.425068 1.707803
H -4.432218 2.710127 1.043341
C 3.999735 2.848463 -1.379969
C 5.146565 3.112559 -0.639303
H -3.366742 -2.017191 4.156539
H -5.241822 -3.161607 4.878691
H -6.838723 -3.840711 3.429082
C 3.931503 3.307487 -2.696402
H -6.543486 -3.442052 1.154791
C 2.780737 -3.772801 0.628515
H -4.693338 -2.310212 0.422012
C 3.082534 -4.400343 1.827305
C 3.826530 -5.573684 1.844961
C 4.280538 -6.144634 0.653716
C 3.987926 -5.530925 -0.559334
C 3.245242 -4.358842 -0.577314
H -0.112581 5.445407 -0.503261
H 2.169269 4.830441 -1.122060
H -2.364250 -1.895204 -1.628070
H -2.967845 -4.085943 -1.538925
H -1.519218 -5.748490 -2.294821
C 6.179236 3.848255 -1.179747
H 0.581553 -5.191373 -3.043945
H 1.210079 -2.918890 -3.163228
C 6.072951 4.342492 -2.453210
C 2.001312 -2.513943 0.626804
C 4.941867 4.064563 -3.207357
C 0.693087 -2.581853 1.089035
C 0.002890 -3.772801 1.511312
C -1.269907 -3.425703 1.828106
H -2.588630 5.127235 2.185020
C -1.412933 -2.056177 1.597257
H -4.063500 6.887875 1.952229
C -2.633244 -1.316708 1.733227
H -5.021378 7.336838 -0.096458
C -2.809073 0.031439 1.431347
H -4.453212 6.046540 -1.941779
C -4.049066 0.769651 1.469064
H -2.950787 4.302249 -1.730183
C -3.803692 2.028508 1.108703
C -2.408864 2.146723 0.836104
C -1.761968 3.307487 0.419727
C -0.407817 3.404323 0.034877
C 1.682457 2.863555 -0.548589
C -3.831248 -2.061207 2.204202
C -4.003141 -2.305181 3.541582
C -5.138161 -2.986801 3.973019
C -6.081605 -3.399293 3.122165
C -5.905776 -3.151546 1.764629
C -4.795687 -2.482503 1.329758
C 0.260073 4.595270 -0.444237
C 1.519749 4.254460 -0.786566
H 4.969423 0.272899 -1.173465
H 4.560028 -1.998327 -0.434472
C -0.548218 -2.202058 -2.395586
C -1.773778 -2.551671 -1.920202
C -2.130686 -3.852029 -1.870409
C -1.252849 -4.858109 -2.315055
C -0.008920 -4.526103 -2.775793
C -2.637180 4.499692 0.254633
C 0.374232 -3.166637 -2.836864
S -0.119010 -0.489459 -2.551723
C -2.966533 5.304556 1.352739
N -1.811830 0.921820 1.043534
C -3.850930 6.362198 1.213894
N -0.208368 -1.529242 1.167825
C -4.416472 6.636355 -0.008475
N 2.078730 -0.108154 0.092111
C -4.077934 5.857900 -1.113646
N 0.488390 2.369318 -0.004248
C -3.184352 4.806547 -0.984263
H 5.217421 2.789356 0.230454
O 0.698336 0.856425 2.393210
O -0.431436 0.032697 -1.194978
O 1.294057 -0.393629 -2.872232
O -1.016660 0.083001 -3.519641
H 3.196692 3.094953 -3.224703
H 2.783361 -4.031866 2.627798
H 4.023354 -5.982404 2.657225
H 4.776535 -6.931892 0.672680
H 4.289723 -5.904433 -1.358077
H 3.048418 -3.951380 -1.389578
H 6.946851 4.009228 -0.681132
H 6.756587 4.863139 -2.811518
H 4.872323 4.400342 -4.072642
C 2.837160 2.106479 -0.769069
C 3.023486 0.735695 -0.493762
C 4.187374 -0.040244 -0.778858
C 3.959058 -1.290298 -0.377149
C 2.639023 -1.359466 0.150348