83
Re1 H28 C47 S1 N3 O3
H 4.045615 3.946365 -1.053183
C -0.550600 0.035048 3.063551
C -1.532934 -1.156251 -2.295789
C 0.042459 0.537735 -3.237649
H -6.795559 -3.458511 1.611902
C 0.874221 1.134532 -4.265566
C 1.491654 2.201881 -3.722530
H -5.154635 -1.927497 0.959673
C 1.075316 2.289105 -2.334716
C 1.253609 2.960502 -0.011829
C 1.663066 3.751258 1.079362
H -2.292287 -4.539632 2.071614
H -2.103401 0.036195 -7.659534
C 1.395293 3.196925 2.293324
H -6.182530 -5.507133 2.532013
C 0.716771 1.966605 2.190503
C 1.855157 -1.049516 -1.218128
H -3.927082 -6.054579 2.747180
C 2.142565 -0.798173 1.397888
H -1.949397 -2.239668 -8.174438
C 0.725304 -2.771047 0.482737
C -1.805720 -1.490228 2.049429
C -2.284464 -1.887328 -0.347350
C -3.196273 -2.339517 -1.351877
C -2.736798 -1.893066 -2.540262
C -0.813375 -0.539943 -3.365959
C -1.106869 -1.032301 -4.733236
C -1.017053 -2.387719 -5.059180
C -1.341337 -2.821545 -6.329912
C -1.522003 -0.148582 -5.721548
C 1.504066 3.192335 -1.358793
C 2.208005 4.463972 -1.765393
C 1.499611 5.463607 -2.423333
C 2.146107 6.629657 -2.816178
C 3.501096 6.794924 -2.552537
C 4.208417 5.795289 -1.896087
C 3.561822 4.630386 -1.501787
C -2.485634 -2.143262 1.030132
S 0.268046 1.603477 0.527405
C -3.564204 -3.101581 1.436180
N -0.788458 -0.580112 1.860985
N -1.280708 -1.119525 -0.933680
N 0.196571 1.290617 -2.113815
O 2.640637 -1.149365 -2.073842
C -5.876406 -3.677720 1.711971
O 3.032532 -0.815388 2.138388
C -4.902744 -2.772195 1.313598
O 0.824155 -3.907257 0.684906
H -1.343609 -0.401073 4.992411
C -3.210663 -4.316981 1.975907
C -4.180626 -5.215620 2.380024
C -5.514281 -4.893120 2.250203
C -1.738722 -1.932088 -7.300533
C -1.829895 -0.585851 -6.995164
H 2.682328 1.209132 4.339075
H 3.389028 1.900039 6.446424
H 1.828276 2.592094 8.021832
H -0.439388 2.608162 7.495387
H -1.138204 2.025137 5.359345
H 0.573689 5.349986 -2.602448
H -2.807162 -2.048004 3.858539
C -1.358431 -0.590442 4.061052
C 0.288408 1.158633 3.244086
C 0.694777 1.548847 4.618935
C 2.042469 1.512121 4.972309
C 2.464244 1.910368 6.227690
C -2.149181 -1.501705 3.444735
C 1.541473 2.321240 7.158757
C 0.199357 2.343046 6.843095
C -0.214748 1.980377 5.579151
Re 0.638233 -0.905137 0.231022
H 0.967022 0.829247 -5.160610
H -3.140499 -2.039970 -3.387743
H 2.091255 2.790644 -4.165928
H 2.088368 4.594808 0.978326
H 1.640014 3.595173 3.119683
H -0.732519 -3.013209 -4.403650
H 3.943225 7.592566 -2.822026
H -1.288557 -3.746581 -6.536602
H -1.595170 0.776454 -5.516333
H -3.978952 -2.858271 -1.210039
H 1.662414 7.312531 -3.266236
H 5.134339 5.908910 -1.715482