185
Y1 H79 C93 N12
Y -0.353680 -0.185755 -0.435480
C 7.662851 6.503117 -1.590668
H 4.465356 -1.486552 -1.558875
H 1.668930 5.059138 -0.314388
H -0.435996 5.219001 0.836742
H -3.973710 1.828865 2.881362
H -3.882432 -0.501310 3.485318
H -0.007266 -4.160780 3.402433
H 2.155746 -4.371034 2.329275
H 1.704888 0.320594 0.724290
H 5.408562 1.106007 -2.569907
H 4.047690 1.641200 -3.132821
H 5.477712 7.933195 -2.049725
H 4.495782 0.169419 -3.434383
H 5.347710 7.582191 -3.571816
H -3.177102 4.657743 0.161672
H 6.620070 8.331114 -3.045574
H -4.076052 8.685593 2.082669
H -3.367956 5.443156 4.730668
H -3.163272 8.591760 3.351107
H -2.164746 3.634273 3.914246
H -4.515846 9.384124 3.416454
H -2.159214 -1.422259 5.267173
H -5.442456 8.126073 5.247291
H -3.503490 -2.576052 6.721393
H -4.015200 7.484883 5.351862
H -3.879666 -5.493550 4.045324
H -5.284794 6.565672 5.283725
H -2.593476 -4.338019 2.560442
H -6.703752 8.028765 3.369083
H -5.638842 -4.751577 8.306869
H 2.838948 -4.947931 0.024563
H -6.576516 6.475315 3.206625
H -5.478414 -3.364941 7.589522
H 7.823279 6.605638 -4.207729
H 4.567698 -6.450989 -0.116025
H -6.214170 7.420591 2.009071
H -4.255842 -4.013080 8.331236
H -4.087116 -6.734225 5.832933
H 5.441754 -2.011319 0.823844
H -4.875426 -6.890612 7.179268
H 8.265839 7.191222 -1.880825
H 2.501496 4.315428 -2.825161
H -3.522852 -6.098248 7.150315
H 4.089180 5.849764 -3.452494
H -5.876718 -5.479649 4.913384
H 7.261781 6.756812 -0.758075
H 6.625602 4.341493 -0.724593
H -6.695454 -4.263301 5.467621
H 5.024088 2.822795 -0.109585
H -6.700986 -5.629086 6.236406
H -3.641790 4.543059 -2.743951
H -5.790972 5.062613 -2.200723
H -7.043970 3.714205 -0.914078
H -6.228000 1.655101 -0.132246
H -5.992890 -2.417927 0.706897
H -6.579282 -4.593452 1.096277
H -5.049684 -6.308503 0.707590
H -2.894970 -5.854979 -0.043971
H 0.786576 -6.093036 -1.795175
C 3.010440 -1.102533 -0.133389
H 2.518092 -6.883662 -3.122621
C 3.901092 -0.852313 -1.185438
H 3.798750 -5.503976 -4.293631
H 7.176035 -3.517853 0.671445
C 2.885970 1.076467 -0.785488
H 3.439170 -3.187701 -4.322967
C 2.554050 2.482218 -0.881518
H 2.902566 0.807133 -5.663008
C 1.378500 2.947905 -0.357427
H 2.819586 2.748077 -6.967048
C 1.118496 4.346706 -0.083660
H 1.475310 4.437063 -6.411735
C -0.032160 4.433588 0.549598
H -0.081948 4.270249 -4.708437
C -0.565998 3.074753 0.727063
C -1.744314 2.798468 1.436477
C -2.126022 1.533466 1.847427
C -3.301572 1.229379 2.648105
C -3.249018 -0.042573 2.982085
C -2.034744 -0.609044 2.432459
C -1.525800 -1.889684 2.707007
C -0.286632 -2.386649 2.227607
C 0.349548 -3.585621 2.766951
C 1.530630 -3.700305 2.178643
C 1.671696 -2.596904 1.265714
C 2.830650 -2.318881 0.529581
C 2.365962 0.155518 0.091767
C 4.501314 0.873163 -2.779474
C -2.551433 3.967900 1.956451
C -3.215826 4.815868 1.077380
C -3.934986 5.898418 1.567151
C -3.992519 6.133000 2.935711
H -4.377546 6.466626 0.977648
C -3.329232 5.285031 3.814960
C -2.610072 4.202481 3.325553
C -2.291982 -2.692474 3.701128
C -2.540922 -2.225049 4.993934
C -3.345828 -2.927055 5.876389
C -3.915624 -4.131240 5.535596
C -3.569874 -4.649057 4.280670
C -2.792628 -3.959214 3.385937
C 3.956412 -3.316287 0.465158
C -4.845000 -4.878425 6.475615
C 3.710238 -4.659483 0.164233
C 6.808158 -7.502262 0.890921
C 4.753020 -5.561318 0.076076
C 6.055806 -5.173824 0.264050
C 6.301980 -3.809777 0.547507
C 5.259198 -2.904466 0.640759
C 3.571938 3.415331 -1.371805
C 3.322998 4.325854 -2.389954
C 4.280034 5.248541 -2.769980
C 7.112417 6.004414 -3.965678
C 5.552394 5.298932 -2.134559
C 5.795802 4.357131 -1.143903
C 4.827702 3.441395 -0.775194
C -2.325174 2.108625 -1.906773
C -3.614130 2.760240 -1.738871
C -4.150734 3.969638 -2.217854
C -5.423094 4.268512 -1.892500
H 6.384960 6.106935 -4.583463
C -6.175446 3.453559 -1.130614
C -5.702460 2.221572 -0.646464
C -4.407972 1.908797 -0.991400
C 7.469231 -6.471841 -1.311960
C -3.578172 0.697662 -0.761333
C 7.206461 -6.195556 0.189789
C -3.434340 -1.566483 -0.205524
C 8.489885 -5.682952 0.827065
C -4.109244 -2.801945 0.147549
C -5.373306 -3.099082 0.570553
C -5.724588 -4.390148 0.790990
C -4.789680 -5.427519 0.556467
C -3.506256 -5.170349 0.115054
C -5.038620 -4.192057 7.806079
C -3.168804 -3.808039 -0.086047
C -4.322226 -6.305028 6.656950
C -1.943466 -3.166850 -0.526096
C -6.169914 -5.029600 5.706739
C 0.119970 -3.312812 -1.571544
C 1.129560 -4.126027 -2.247189
C 1.323180 -5.510926 -2.282063
N 3.826686 0.421377 -1.575214
C 2.349366 -5.969663 -3.080845
N 0.293398 2.195507 0.144431
C 3.104484 -5.146022 -3.788588
H 6.086232 -7.915820 0.410537
H 7.436039 5.100841 -3.996049
N -1.416820 0.348396 1.660960
C 2.905332 -3.748959 -3.811050
H 6.528792 -7.305908 1.787584
N 0.516614 -1.820179 1.299929
C 1.870848 -3.255469 -3.036404
H 8.146901 5.681213 -1.479511
N -2.130447 -1.802802 -0.562531
C 1.325946 -1.938338 -2.793103
C 1.118496 0.313643 -3.456927
N -0.881322 -3.851480 -0.919438
N 0.309994 -1.992205 -1.892979
C 1.422756 1.377079 -4.410012
H 6.653262 -6.739438 -1.740780
N 1.710420 -0.867952 -3.507652
C 2.302344 1.488288 -5.464280
N 0.102821 0.706350 -2.634001
C 2.260854 2.661195 -6.229118
N -1.376436 2.628180 -2.657397
C 1.433820 3.651650 -5.917375
N -2.337897 0.876639 -1.275486
C 0.512742 3.578669 -4.888076
N -4.093201 -0.397052 -0.223336
C 0.526572 2.412712 -4.141703
C 6.620070 6.336303 -2.557908
C -0.322590 1.943549 -3.056315
C 5.958996 7.667336 -2.837029
C -4.070520 8.621300 3.038912
C -4.892022 7.385838 4.976530
C -6.194808 7.321545 2.963083
C -4.784148 7.368462 3.441540
H 7.560509 -8.096534 0.911484
H 8.119241 -7.172110 -1.398624
H 7.803917 -5.674264 -1.733521
H 9.131597 -6.397123 0.880034
H 8.301797 -5.359751 1.712642
H 8.849465 -4.970520 0.295948