91
Fe1 H26 C48 N7 O1 F8
Fe 0.105271 0.079851 0.323387
H -4.856070 0.311855 1.573065
H -4.356153 2.562830 0.750957
H 4.541844 -2.388799 -0.138800
H 0.244909 -4.807276 1.817441
H -2.070633 -4.142420 2.226315
F -2.473699 4.949868 1.816349
H 4.131990 -5.588095 3.514638
H 4.817255 -7.006711 1.831636
H 4.176369 -6.618879 -0.350212
H 4.985634 -0.204825 -1.156201
H -6.237041 -4.352442 1.358724
H -6.921001 -3.864108 3.503461
H -5.772367 -2.310202 4.784959
H -2.129370 0.636552 -2.045574
H -0.223682 -1.716212 -4.557660
H 0.936700 -1.747136 -2.402691
H -3.242761 0.386587 -4.313915
H -2.061496 0.548936 -5.332355
H -2.768950 -0.840046 -5.166790
H 7.087112 3.544652 -3.443985
H 5.702225 2.111862 -4.610041
C -2.815548 -0.149034 1.170223
C -4.033753 0.616710 1.262137
C -3.759255 1.852877 0.814155
C -2.365101 1.871947 0.451171
C -1.709857 2.971536 -0.094080
C -0.371960 2.993826 -0.471980
C 1.549914 3.748747 -1.355554
C 1.677438 2.361311 -0.963496
C 2.819415 1.592733 -1.134516
C 2.954771 0.268820 -0.719810
C 4.177414 -0.492414 -0.795424
C 3.930849 -1.696241 -0.246685
C 2.545962 -1.713764 0.140342
C 1.889674 -2.807297 0.708926
C 0.547208 -2.837319 1.056091
C -0.130616 -3.977237 1.634707
H -0.064439 4.977441 -1.189246
C -1.401162 -3.612984 1.856560
H 2.210639 4.275220 -1.746054
C -1.537432 -2.241010 1.412278
C -2.703948 -1.491115 1.529141
H -4.063774 5.639720 -2.895145
H -4.598933 7.179454 -1.246172
H -3.866679 6.865064 0.923376
C 4.006554 2.217388 -1.815304
C 4.353233 1.896686 -3.119625
C 2.710425 -4.031353 1.012276
C 3.117799 -4.325642 2.301409
C 3.888950 -5.425746 2.631710
C 4.286012 -6.270989 1.629601
C 3.907485 -6.043444 0.330175
C 3.116494 -4.936897 0.050236
C -3.915757 -2.159449 2.093860
H 6.545427 4.222392 -1.309222
C -4.646053 -3.098494 1.383521
C 4.863461 3.108243 -1.185780
C -5.769495 -3.737064 1.876139
C 6.002567 3.623249 -1.768051
C -6.174519 -3.436977 3.150800
C -5.494998 -2.510431 3.920726
C 6.310479 3.226397 -3.043478
C -4.393484 -1.892605 3.367224
C 5.493383 2.368269 -3.741487
C -1.504017 0.045655 -2.396961
C -0.466461 -1.244629 -3.794385
C 0.168681 -1.258673 -2.595795
C -2.483097 -0.046342 -4.709004
N -1.799529 0.633202 0.672777
N 0.495911 1.925161 -0.409223
N 1.960420 -0.501305 -0.153195
C 0.300383 4.133358 -1.051819
N -0.339720 -1.789398 0.911244
N 0.667554 0.430524 1.944846
N -0.490870 -0.444869 -1.715163
N -1.529731 -0.406859 -3.660379
O 1.436747 -0.033200 2.743421
F -2.770255 3.469662 -2.601575
F 4.545107 3.487572 0.078630
F 3.529219 1.078114 -3.811737
F 2.734703 -3.483620 3.282938
F 2.726741 -4.728163 -1.225547
F -4.226149 -3.403090 0.129984
F -3.745158 -0.960905 4.111311
C -2.538962 4.189536 -0.391639
C -3.033658 4.416824 -1.663225
C -3.778182 5.516799 -2.017775
C -4.089096 6.431749 -1.034119
C -3.652876 6.249171 0.258396
C -2.892428 5.134765 0.549840