17
H12 C5
H 1.030046 3.163062 -0.132470
C 0.326232 2.695345 -0.587346
H -0.494081 3.186011 -0.502299
C 0.146876 1.230996 0.066274
H 0.550986 2.606828 -1.516647
C -0.152296 0.007063 0.210913
H 1.068471 1.131552 0.348639
C -0.123307 -1.229984 0.467393
H -0.304188 1.532608 0.869094
C -0.173489 -2.711817 -0.181693
H -0.496970 -0.102217 -0.690030
H -0.954307 0.180818 0.732693
H -0.831872 -1.296644 1.126438
H 0.694794 -1.286809 0.986940
H -0.009725 -3.366403 0.501115
H 0.499105 -2.786127 -0.863813
H -1.038438 -2.862623 -0.568209