91
Cu1 P2 H38 C40 N4 O6
H -1.985726 -5.279404 0.293932
H -1.972072 -7.599251 0.294684
P -4.532059 -0.195175 -2.647912
C -1.113996 2.634542 -0.524249
C -0.542271 5.484108 1.059023
C -0.552024 6.889249 1.063406
H -5.297871 -0.085592 -5.549807
C -2.282805 3.311061 -1.018860
Cu 0.000000 -0.129839 0.000000
H -6.247821 0.629797 -4.518909
P 4.532059 -0.195175 2.647912
C -3.113767 2.367201 -1.507108
H -5.912315 1.953061 -6.425562
C -2.452704 1.085496 -1.338265
H 0.905085 5.021380 -1.778733
H -5.412957 2.687059 -5.133932
C -2.913049 -0.147207 -1.848979
H 0.926542 7.357768 -1.774057
H -4.381082 2.004751 -6.096882
H 0.000000 8.486677 0.000000
H 2.436318 4.227421 1.005114
H 3.951946 2.511313 1.882413
C -5.865500 0.365144 -0.474810
H 5.297871 -0.085592 5.549807
C -7.256289 -0.191040 -0.453701
H 6.247821 0.629797 4.518909
C -2.195222 -1.345588 -1.709925
H 5.412957 2.687059 5.133932
H -3.144392 -2.734188 -3.038186
C -1.652756 -3.523391 -1.888039
H 4.381082 2.004751 6.096882
H -1.603406 -4.417214 -2.142920
C -0.846957 -2.879747 -0.893933
H 5.243254 -0.304758 0.148879
H 5.814784 1.134292 -0.114874
C -1.185389 -5.739445 0.176433
H 7.515720 -0.366786 -0.452828
C -1.174270 -7.132800 0.175569
H 7.859029 0.445781 0.843683
H 7.281647 -1.007742 0.958351
N -1.246248 1.274888 -0.702478
H 3.144392 -2.734188 3.038186
N -1.129406 -1.525883 -0.865632
H 1.603406 -4.417214 2.142920
H 1.985726 -5.279404 -0.293932
O -5.487861 0.762330 -1.822833
H 1.972072 -7.599251 -0.294684
H 0.000000 -8.759174 0.000000
C 1.113996 2.634542 0.524249
C 0.000000 3.276325 0.000000
C 0.000000 4.779470 0.000000
C -5.381747 0.675284 -4.953285
C 0.542271 5.484108 -1.059023
C -5.260809 1.942723 -5.720353
C 0.552024 6.889249 -1.063406
C 0.000000 7.558325 0.000000
C 2.282805 3.311061 1.018860
C 3.113767 2.367201 1.507108
C 2.452704 1.085496 1.338265
C -2.495227 -2.598140 -2.386267
C 2.913049 -0.147207 1.848979
C 5.381747 0.675284 4.953285
C 5.260809 1.942723 5.720353
C 5.865500 0.365144 0.474810
C 7.256289 -0.191040 0.453701
C 2.195222 -1.345588 1.709925
C 2.495227 -2.598140 2.386267
C 1.652756 -3.523391 1.888039
O -5.108271 -1.534773 -2.830238
C 0.846957 -2.879747 0.893933
O -4.319832 0.645097 -3.954618
C 0.000000 -3.538484 0.000000
C 0.000000 -5.037494 0.000000
C 1.185389 -5.739445 -0.176433
C 1.174270 -7.132800 -0.175569
C 0.000000 -7.828754 0.000000
H -0.905085 5.021380 1.778733
N 1.246248 1.274888 0.702478
H -0.926542 7.357768 1.774057
N 1.129406 -1.525883 0.865632
O 5.108271 -1.534773 2.830238
H -2.436318 4.227421 -1.005114
O 4.319832 0.645097 3.954618
H -3.951946 2.511313 -1.882413
O 5.487861 0.762330 1.822833
H -5.243254 -0.304758 -0.148879
H -5.814784 1.134292 0.114874
H -7.515720 -0.366786 0.452828
H -7.859029 0.445781 -0.843683
H 5.912315 1.953061 6.425562
H -7.281647 -1.007742 -0.958351