78
Zn1 H28 C44 N3 Cl1 O1
C -0.589723 -2.263078 4.326331
H -1.765571 -2.075658 -4.366613
C -0.933801 -2.967653 6.990656
H -2.350004 -4.655073 0.250376
C 0.270969 -3.185887 6.371720
H -1.752605 -4.140461 2.614404
C 0.446498 -2.830423 5.044448
N -0.525895 -0.416827 -1.912249
N -0.743312 -1.908568 0.564623
N 0.507335 0.369704 1.848726
Cl 2.544872 -1.164286 -0.535481
O 0.794565 1.842226 -0.626917
H -2.072747 -6.676992 -3.718408
H -4.341663 -6.410156 -3.965246
H -5.361928 -4.451770 -3.295666
H -4.117265 -2.758631 -2.249310
H -2.538498 -1.726230 4.455080
H -2.801792 -2.258313 6.714066
H -1.050488 -3.198593 7.904414
C -1.360656 -1.428739 -3.799486
C -1.147229 -1.551833 -2.381381
C -1.223025 3.718338 -5.859086
C -1.554138 -2.651103 -1.619098
C -1.124290 2.978662 -4.696980
C -1.381600 -2.813269 -0.239997
C -1.879266 -3.890937 0.561063
C -1.550148 -3.609806 1.851949
H 1.824803 4.835079 -0.222601
H 1.192498 4.345879 -2.580016
H 0.286926 4.239463 3.403957
H 1.222418 5.927836 4.744452
H 3.458422 6.482156 4.520184
H 4.755943 5.443402 2.907260
H 3.853363 3.745498 1.568550
H 1.890626 3.654965 -6.732945
H -0.163865 4.480886 -7.400836
C -2.335044 -3.731630 -2.328512
C -1.727672 -4.884902 -2.775471
Zn 0.538053 -0.323275 -0.104166
C -2.492621 -5.884425 -3.404790
C -3.825049 -5.720829 -3.565736
H -0.882937 0.124152 -5.055850
C -4.429428 -4.569305 -3.155262
C -3.690410 -3.559139 -2.531146
C -1.807458 -2.080423 4.945389
H 0.588118 -0.052151 5.033269
C 1.275276 2.826026 0.206633
C -1.969025 -2.413968 6.284891
C 1.495685 4.008522 -0.555362
H 1.528597 2.117481 4.337202
C 1.148616 3.741210 -1.848176
H 2.078123 2.436731 -4.740097
H -0.792181 -5.004501 -2.659818
C 1.421883 2.667195 1.580111
C 1.984375 3.818719 2.356950
H 0.987049 -3.581376 6.854417
C 1.201474 4.473421 3.301280
H 1.286247 -2.977818 4.624426
C 1.760974 5.478821 4.102241
C 3.076446 5.814272 3.961431
C 3.847379 5.189272 3.016376
C 0.710790 2.385428 -1.895389
C 3.308823 4.181489 2.212913
C 0.182207 1.710079 -2.993947
C -0.370312 0.418465 -2.994825
C 1.229399 2.754393 -5.024809
C -0.882937 -0.230518 -4.174618
C 1.118696 3.488351 -6.204611
C -0.097044 3.969768 -6.604039
C -0.842047 -2.369178 1.847802
C -0.355352 -1.684298 2.959535
C 0.254014 -0.420480 2.946051
C 0.661921 0.270435 4.142542
C 1.164573 1.453567 3.764242
C 1.051875 1.533935 2.325704
C 0.100426 2.489145 -4.268514
H -2.066763 4.052042 -6.142588
H -1.904199 2.803630 -4.185124