105
Fe1 H44 C52 S2 N4 O2
H -4.389314 2.124555 -6.275444
H -2.720224 2.267891 -7.902709
H -0.515974 1.705696 -7.358614
H 0.023224 1.089352 -5.175614
C 2.850277 -0.271701 -1.818908
H 2.693971 0.135373 -2.707626
H -5.165800 -6.958157 0.197329
H -4.762916 0.960350 1.337128
H -5.864536 -4.924381 1.111925
H -4.272185 3.126313 0.924145
S 1.383134 -1.178857 -1.278441
H 5.165800 6.958157 -0.197329
N -1.498243 -0.673519 -1.144271
H -1.871037 3.217092 0.227284
H 5.864536 4.924381 -1.111925
H -2.721233 2.025813 -0.450300
O 0.844239 -1.860976 -2.475480
C 1.071833 2.627504 -1.074264
C -0.464983 1.802368 -2.405860
H -1.332849 -4.411557 2.239759
H 0.406923 -3.486245 3.739098
C 0.879377 3.582758 -2.135267
C -0.066239 3.078375 -2.951451
C -1.417768 0.964331 -2.988123
H 3.856174 -1.511396 4.084499
H 4.389314 -2.124555 6.275444
H 2.720224 -2.267891 7.902709
H 0.515974 -1.705696 7.358614
H -0.023224 -1.089352 5.175614
C -1.850035 1.288907 -4.387195
H -2.693971 -0.135373 2.707626
C -3.170767 1.567297 -4.739210
C -3.488429 1.927070 -6.047189
H 4.762916 -0.960350 -1.337128
C -2.500606 1.999694 -7.018562
H 4.272185 -3.126313 -0.924145
C -1.192496 1.679259 -6.693041
C -0.873622 1.319008 -5.390121
H 1.871037 -3.217092 -0.227284
H 2.721233 -2.025813 0.450300
C -4.007029 1.279670 1.891180
C -3.531949 2.654420 1.381565
C -2.385497 2.390523 0.406584
C -1.071833 -2.627504 1.074264
C 0.464983 -1.802368 2.405860
N 0.218305 1.553123 -1.233913
C -0.879377 -3.582758 2.135267
Fe 0.000000 0.000000 0.000000
C 0.066239 -3.078375 2.951451
H 3.276587 0.974683 3.820020
H 3.625955 2.841234 2.231241
C 1.417768 -0.964331 2.988123
H 1.665052 5.239720 0.904138
H 3.058485 7.111048 0.810718
H 4.443840 3.072164 -1.083139
C 1.850035 -1.288907 4.387195
C 3.170767 -1.567297 4.739210
C 3.488429 -1.927070 6.047189
C 2.500606 -1.999694 7.018562
C 1.192496 -1.679259 6.693041
C 0.873622 -1.319008 5.390121
H 3.063533 0.450711 -1.175891
C 4.007029 -1.279670 -1.891180
H -4.321662 1.360097 2.826080
C 3.531949 -2.654420 -1.381565
C 2.385497 -2.390523 -0.406584
H -3.220042 3.212315 2.136679
N -0.218305 -1.553123 1.233913
C 1.900320 0.188248 2.373325
C 2.179410 1.862888 0.986379
C 2.855730 1.083141 2.975486
C 3.039300 2.103214 2.115246
C 2.008967 2.768451 -0.058337
C 2.905510 3.969287 -0.088442
C 2.512521 5.175219 0.479345
C 3.345451 6.288460 0.432768
C 4.594896 6.198796 -0.164940
C 5.004545 4.994456 -0.715412
C 4.161316 3.889019 -0.688543
C -2.850277 0.271701 1.818908
H -3.276587 -0.974683 -3.820020
H -3.625955 -2.841234 -2.231241
S -1.383134 1.178857 1.278441
N 1.498243 0.673519 1.144271
H -1.665052 -5.239720 -0.904138
O -0.844239 1.860976 2.475480
H -3.058485 -7.111048 -0.810718
H -4.443840 -3.072164 1.083139
H -3.063533 -0.450711 1.175891
H 4.321662 -1.360097 -2.826080
H 3.220042 -3.212315 -2.136679
C -1.900320 -0.188248 -2.373325
C -2.179410 -1.862888 -0.986379
C -2.855730 -1.083141 -2.975486
C -3.039300 -2.103214 -2.115246
C -2.008967 -2.768451 0.058337
H 1.332849 4.411557 -2.239759
C -2.905510 -3.969287 0.088442
H -0.406923 3.486245 -3.739098
C -2.512521 -5.175219 -0.479345
C -3.345451 -6.288460 -0.432768
C -4.594896 -6.198796 0.164940
C -5.004545 -4.994456 0.715412
C -4.161316 -3.889019 0.688543
H -3.856174 1.511396 -4.084499