122
Ho1 Co1 P3 H51 C49 N8 O9
Ho 0.170670 -0.102603 0.746963
H -2.733083 5.193602 -0.296249
H 1.283309 4.621332 4.559543
H -2.391776 5.101756 -1.823586
Co -0.282222 0.900165 -3.299535
P -1.940837 0.324362 -2.020881
C 0.783414 1.373759 -5.028631
H -2.156194 -0.043963 -5.081350
H -2.292946 2.402903 -4.513404
C 2.782991 3.460307 -1.488594
H 0.073220 3.342556 -4.512173
C 3.943665 4.063192 -2.272420
C 0.992566 -3.352766 -2.868563
H -0.256595 4.637817 -0.154578
H -1.364407 3.535667 -0.075677
C 3.673608 -0.628008 -2.578748
C 4.776822 -1.266218 -3.371954
H -3.840895 1.418504 -0.273598
H -4.659112 0.629573 -1.358841
H -4.634979 3.427337 -1.003593
H -5.900229 2.501814 -1.009826
H -5.149813 2.810321 -2.349495
H -3.571986 -1.880879 -1.208284
H -2.191818 -2.443728 -1.666261
H -4.620040 -2.912377 -2.967251
H -3.784585 -3.974491 -2.170528
H -3.241022 -3.406932 -3.527674
H -0.812800 -4.252384 -2.839610
H 0.176646 -4.836429 -1.774361
C 1.813082 -2.910022 1.210774
C 3.185205 -3.385736 1.102480
C 3.711531 -4.645672 0.691392
C 5.138815 -4.685707 0.730905
C 5.966226 -3.642434 1.194559
C 5.405425 -2.420178 1.575579
H -2.843405 4.013737 4.204869
C 3.995379 -2.321267 1.526855
H -5.122233 3.881855 4.791487
C 3.105912 -1.212053 1.846616
H -6.387482 2.007259 4.368232
C 2.687609 0.940435 2.709198
H -5.480778 0.238639 3.145085
C 3.128895 2.077910 3.418373
H -4.792417 -3.567073 1.772243
C 4.404487 2.478263 3.914074
H -4.937214 -5.837312 1.270056
C -2.030933 5.254832 -0.947933
C 4.419427 3.691099 4.636818
H -3.111164 -7.101958 0.794406
H -0.942657 -6.152885 0.701610
C 3.296676 4.463545 4.881330
C 2.041769 4.105582 4.410264
C 2.003846 2.850357 3.659717
C 0.863857 2.160336 3.094913
N 0.760431 -3.713084 0.999122
N 1.803888 -1.588856 1.593787
N 3.517319 -0.060213 2.332277
C -0.050892 0.205669 -5.239938
N 1.335022 1.024274 2.507571
C -1.391987 0.565987 -5.015167
C -1.472430 1.898929 -4.701276
O 1.907315 2.779471 -2.317487
C -0.162363 2.412323 -4.710847
O 0.640916 1.809909 -0.356569
C -0.973685 4.213913 -0.650419
O 0.383499 -2.090711 -3.232951
C -4.152323 1.439700 -1.191692
O 2.386524 -0.598806 -3.210548
C -5.041790 2.657245 -1.409211
O 1.108633 -0.936280 -1.114179
C -3.035318 -2.092830 -1.989164
C -3.732871 -3.197335 -2.731564
C 0.095054 -4.516146 -2.676269
C -1.458640 1.788243 2.971553
C -2.815824 2.117945 3.371990
C -3.353641 3.257775 4.019390
P 0.470952 2.269138 -1.787429
C -4.722317 3.161219 4.361313
C -5.502612 2.040230 4.084807
P 0.961997 -0.722915 -2.586005
C -4.956751 0.968696 3.386427
C -3.608760 1.018151 3.056722
H 0.267432 -0.684528 -5.495520
C -2.713547 0.040818 2.440359
C -2.302140 -2.136869 1.657495
C -2.757216 -3.494067 1.451073
C -4.040852 -4.063982 1.539752
H 1.753324 1.453830 -5.138579
C -4.104057 -5.422829 1.256720
H 3.131194 2.848002 -0.820452
C -2.997395 -6.192920 0.958996
H 2.304932 4.166813 -1.028429
C -1.694222 -5.641845 0.897247
H 4.363117 3.380236 -2.801739
C -1.624122 -4.264159 1.156810
H 4.584909 4.432930 -1.660014
C -0.515161 -3.322151 1.164838
H 3.614999 4.755568 -2.847684
H 1.487863 -3.218530 -2.046140
H 3.386312 5.247767 5.375365
N -1.449447 0.533959 2.353844
H 1.636108 -3.583558 -3.556426
N -3.131849 -1.176728 2.088726
N -0.955298 -2.061509 1.430946
H 0.340979 -5.215587 -3.287685
H 3.589717 -1.101367 -1.736208
H 3.933323 0.285740 -2.375901
H 5.114682 -2.026890 -2.894576
N -0.383005 2.545382 3.249802
H 5.484719 -0.632718 -3.505591
H 4.436665 -1.548821 -4.224911
O -0.425525 3.580648 -1.770411
O -3.033020 1.501166 -2.081038
O -2.761813 -0.882821 -2.653723
O -1.634465 -0.002515 -0.601184
H 5.235346 3.990186 4.968252
H 3.182907 -5.363953 0.426257
H 5.554819 -5.458154 0.425710
H 6.885572 -3.767250 1.247665
H 5.935198 -1.704252 1.846178
H 5.174439 1.974289 3.768999
H -1.636763 6.128544 -0.912755