81
H27 Ru1 C46 N4 Cl1 O2
C -1.956363 1.227848 5.176698
H 2.227503 -4.524906 0.026434
C -2.723675 2.258192 5.720405
H 1.581346 -4.336010 -2.368618
C 4.127609 -4.470936 3.312058
C -3.096225 2.277817 7.066416
C 3.583424 -3.536267 2.412481
H -1.376841 -0.361826 -4.811731
C -2.694396 1.240114 7.904600
H -2.610598 1.485434 -3.809761
C -1.916988 0.204863 7.414729
C -1.540400 0.187691 6.077610
H -3.536419 3.786535 0.534802
H -3.538439 3.445541 2.960849
H 0.571726 -3.352277 3.691418
H 2.429427 -2.685006 -4.519339
H 2.448610 -4.031813 -6.452344
H 0.445523 -4.669645 -7.410836
H -1.570689 -4.078424 -6.475656
H -1.597948 -2.692366 -4.548396
H -4.727771 2.059483 -1.712348
H -5.972633 3.452900 -3.160060
H -4.994311 5.371303 -3.981809
N 0.331436 -0.096880 1.064394
H -2.803435 5.972337 -3.460097
N 1.443028 -1.529549 -0.817745
H -1.557563 4.517589 -2.057568
N -0.466164 0.224489 -1.771292
C 3.044286 0.648893 0.215466
N -1.513140 1.541857 1.408332
Cl 2.491014 0.958487 -2.724214
O 0.984661 3.565747 -0.385038
H 0.669659 -1.058535 4.151624
C 3.340105 -4.954216 4.350073
H 1.484423 -4.932137 5.186506
Ru 1.299157 0.522798 -0.643893
C -0.579241 0.545858 1.725831
H -3.000311 2.962260 5.160909
C -0.588328 0.251474 3.149821
H -3.613151 2.984339 7.405994
C 0.400090 -0.688101 3.330027
H -2.953868 1.240114 8.807334
C 0.942257 -0.999658 2.044485
H -1.641362 -0.486939 7.986299
C 1.707549 -2.120770 1.579104
H 5.015065 -4.762867 3.215765
H -1.005301 -0.516377 5.755476
C 1.821636 -2.410248 0.175634
H 4.111455 -3.207538 1.708329
C 1.950867 -3.742335 -0.415676
C 1.594471 -3.639301 -1.736984
C 1.247162 -2.270415 -1.975035
C 0.475812 -1.733165 -3.071587
C -0.349048 -0.572801 -2.941296
C -1.272850 -0.045363 -3.933354
C -1.949296 0.970262 -3.383697
C -1.476794 1.144439 -1.994087
C -2.083576 2.081561 -1.097642
C -2.137086 2.223847 0.318824
C -3.018484 3.141344 0.977764
C -3.017475 2.959807 2.347234
C -2.114874 1.934369 2.680843
C -1.566650 1.144439 3.739808
C 2.271927 -3.097144 2.553244
C 1.465240 -3.627035 3.597929
O 4.038762 0.729848 0.642278
C 0.433408 -2.564799 -4.334308
C 1.617693 -2.957311 -4.907195
C 1.633847 -3.761961 -6.069564
C 0.436437 -4.144660 -6.630964
C -0.765011 -3.786493 -6.087594
C -0.780156 -2.964671 -4.922249
C -2.954878 3.102093 -1.844668
C -4.325943 2.815068 -2.102203
C -5.083158 3.663875 -2.940383
C -4.489501 4.809520 -3.424026
C -3.179014 5.177500 -3.128320
H 3.713665 -5.555250 4.969492
C -2.435933 4.284535 -2.301701
C 1.081584 2.422556 -0.443404
C 2.011445 -4.571517 4.497438