81
H27 Ru1 C46 N4 Cl1 O2
H -1.277602 -2.188363 3.451516
H -4.186454 5.515893 -5.379385
H -4.383933 1.985249 1.565104
H -2.828605 6.472136 -3.757571
H -4.156184 3.079181 -0.674775
H -0.523721 2.037041 -4.544917
H -1.697064 5.134407 -2.223924
H 1.226203 0.273613 -4.625431
H 3.773251 -3.003127 -1.834743
H 3.326400 -4.598549 0.022721
H -3.697802 -1.672978 2.868461
H -5.346824 -1.838457 4.535939
H -5.671151 -0.075030 6.017354
H -4.372402 1.818507 5.889711
H -2.760857 2.044620 4.212357
H -3.318699 1.834929 -3.931246
H -4.486277 3.210553 -5.412427
H 4.243165 0.315299 -2.880708
H 5.779754 -0.104083 -4.594531
H 5.387678 -1.862458 -6.126749
H 3.460455 -3.137027 -5.918324
H 1.916659 -2.706275 -4.215321
H 1.978641 -6.057545 1.175448
H 1.982966 -7.986451 2.505429
H 0.932146 -8.001610 4.594549
H -0.050925 -6.009543 5.384575
H -0.019213 -4.098322 4.117051
Ru 0.551170 1.452432 0.385753
C 0.424755 -1.556763 0.828966
C 0.103311 -2.501637 1.893884
C -0.850931 -1.852352 2.672863
C -1.057059 -0.584099 2.063780
C -2.057428 0.367090 2.272867
C -2.321214 1.416809 1.343202
C -3.602666 2.007987 1.023750
C -3.475818 2.610533 -0.205844
C -2.122293 2.402105 -0.649515
C -1.606253 2.510741 -1.950941
C -0.516514 1.741452 -2.419523
C -0.159034 1.569657 -3.802273
C 0.802416 0.605835 -3.843286
C 1.069084 0.175084 -2.483871
C 1.980083 -0.907479 -2.220333
C 2.106931 -1.833404 -1.195357
C 3.068380 -2.914703 -1.202937
C -3.739604 4.967665 -4.746165
C 2.827657 -3.811575 -0.163520
C -2.928066 5.528525 -3.792380
C 1.729270 -3.351771 0.551595
C -2.250583 4.732709 -2.881879
C 0.937912 -3.637254 1.678323
C -3.066445 0.197821 3.365784
C -3.836181 -0.952954 3.471863
C -4.814928 -1.054010 4.467719
C -5.002317 -0.008080 5.346076
C -4.242671 1.116168 5.265385
C -3.275456 1.248804 4.274366
C -2.378872 3.338137 -2.930714
C -3.214915 2.777276 -3.884929
C -3.899605 3.598356 -4.774909
C 2.934325 -1.181593 -3.364973
C 4.084605 -0.392093 -3.492765
C 4.999928 -0.639680 -4.515300
C 4.766412 -1.681820 -5.431282
C 3.627664 -2.433424 -5.302059
C 2.706575 -2.182047 -4.278150
C 0.976831 -4.873927 2.496492
C 1.569269 -6.041123 2.031470
C 1.560620 -7.196951 2.827541
C 0.952327 -7.210847 4.069456
C 0.364214 -6.023439 4.529268
C 0.378628 -4.890348 3.777793
C 0.792325 1.898089 2.218668
C 0.963858 3.226975 -0.089307
N -0.166241 -0.426199 0.936340
N -1.441927 1.746505 0.350148
N 0.282051 0.897634 -1.638166
N 1.342961 -2.125203 -0.033364
Cl 2.867874 0.799736 0.428257
O 0.991246 2.148202 3.301695
O 1.116652 4.331012 -0.366003