122
Tb1 Co1 P3 H51 C49 N8 O9
H -5.542436 5.481637 -0.460278
C -0.761494 -1.383751 5.044122
H -3.181124 5.334356 -0.368484
C 3.893664 3.129820 2.803897
C -1.045080 3.302349 2.853792
C -0.172595 4.523143 2.663700
C -3.681974 0.583967 2.654686
C -4.776296 1.273615 3.394939
C 3.029184 2.120362 2.091545
C 4.118932 -1.447573 1.109780
C 5.047448 -2.614130 1.395679
C 1.014350 -4.264610 0.710500
C 2.155556 -5.204401 0.938929
C -2.732875 -3.504828 1.464676
C -3.925538 -4.075249 2.208782
C 0.502065 3.342793 -1.172403
C 1.612397 4.248686 -1.163573
C 1.684437 5.631255 -0.902555
C 2.973153 6.200040 -0.971456
C 4.085771 5.440258 -1.274333
C 4.028596 4.061663 -1.557540
C 2.742167 3.516023 -1.471869
C 2.296205 2.153559 -1.694456
C 2.698715 -0.027365 -2.464958
C 3.590639 -0.989833 -3.082965
C 4.955969 -0.914557 -3.430686
C 1.477464 -1.933833 4.694482
C 4.698683 -3.093611 -4.435917
C 3.333353 -3.173563 -4.086252
C 2.811920 -2.077373 -3.431732
C 1.459169 -1.750784 -2.992745
C -0.858691 -2.131376 -3.141025
C -2.018192 -2.839727 -3.709646
C -2.038775 -4.073145 -4.451454
C -3.313769 -4.439944 -4.905845
C -4.418383 -3.668473 -4.648256
C -4.390939 -2.473395 -3.947490
C -3.113658 -2.060541 -3.453004
C -2.680274 -0.891646 -2.723035
H 5.844463 -2.293853 1.822244
C -3.103367 1.224287 -1.883834
C -3.989573 2.325620 -1.514479
C -5.401787 2.409781 -1.571777
C -5.934654 3.620756 -1.146885
C -5.126205 4.693802 -0.720044
C -3.711705 4.631616 -0.667355
C -3.181124 3.384873 -1.112906
C -1.794068 2.937186 -1.222589
N 0.934306 2.069632 -1.460551
N 3.127524 1.194598 -2.091177
H -6.858596 3.728294 -1.144622
N 1.447734 -0.525548 -2.396316
N 0.376281 -2.518748 -3.286244
N -1.332097 -0.985859 -2.538606
N -3.509307 0.077601 -2.363966
O 2.766181 0.857021 2.685032
N -1.800929 1.628258 -1.624703
N -0.764924 3.721047 -1.013183
O -0.391002 2.067295 3.208113
O -2.406980 0.578122 3.290421
O -1.180012 0.874788 1.137404
O 3.018892 -1.515369 2.041151
O 1.621545 0.027807 0.632978
H 5.478545 -0.182828 -3.193427
O 0.401438 -3.640887 1.805001
H 6.369326 -1.964224 -4.429156
O -1.894695 -2.780113 2.308564
O -0.584253 -1.840555 0.376410
H -0.254927 0.684492 5.517733
Tb -0.182704 0.099997 -0.743647
H 2.165847 0.034586 5.075674
Co 0.287546 -0.918998 3.316022
H 2.292775 -2.441133 4.499128
P -0.972926 0.691739 2.607478
H -0.110847 -3.369236 4.531488
P 1.934290 -0.326602 2.035272
H -1.734606 -1.449911 5.143550
P -0.452751 -2.286606 1.800195
H -1.696871 3.503866 3.543660
H -1.535638 3.155536 2.029151
H 0.097269 4.583925 1.744622
H 0.604980 4.450671 3.222744
H -0.667728 5.310978 2.905630
H -3.950695 -0.334785 2.500503
H -3.587064 1.009445 1.786987
H 4.728414 2.723045 3.045557
H -5.022147 2.077815 2.928377
H 3.444272 3.433733 3.596983
H -4.474414 1.498043 4.279181
H -5.537862 0.693843 3.454753
H 2.171564 2.543035 1.923195
H 3.435124 1.953912 1.226664
H 3.076067 7.111076 -0.811544
H 4.057184 3.877913 2.223567
H 4.595769 -0.608306 1.215714
H 3.789606 -1.499004 0.199222
H 4.604917 -3.240658 1.974739
H 5.278434 -3.051297 0.572459
H 1.328810 -3.565610 0.115530
C 5.484262 -1.989239 -4.145683
H 0.325967 -4.753208 0.232125
H 1.846813 -6.109126 0.851811
H 2.510038 -5.071147 1.820160
H 2.842795 -5.038418 0.288398
H -2.230882 -4.231881 1.061198
H -3.047336 -2.927394 0.751562
H -4.538450 -3.366898 2.421834
H -3.627086 -4.496051 3.018305
H -4.366926 -4.725154 1.656271
H 0.929732 6.136218 -0.699135
H 4.914803 5.860359 -1.289375
H 4.778727 3.559973 -1.780896
H 5.087470 -3.813416 -4.881380
H 2.816494 -3.920955 -4.286444
H -1.277209 -4.580211 -4.614281
H -3.412110 -5.225441 -5.393737
H -5.240554 -3.967710 -4.963861
C 0.062964 -0.205505 5.259877
H -5.159366 -1.968900 -3.807763
C 1.398563 -0.573239 5.020674
H -5.932367 1.706106 -1.870649
C 0.145296 -2.442302 4.724630