15
H8 C7
C -1.366107 -0.543274 0.775106
H 0.515580 -2.177646 -1.397717
H 1.674610 -0.127225 -1.298106
H -1.401044 -2.425187 -0.038338
H -2.149513 -0.641694 1.304601
C 0.892414 -0.240558 -0.769900
H -0.956258 1.356533 1.353902
C 0.214224 -1.472301 -0.835931
H 0.951739 2.644943 -0.753251
C -0.921315 -1.606510 -0.035851
H 2.175948 1.948546 0.005579
H 0.992756 2.624066 0.845905
C -0.655872 0.646715 0.798032
C 0.473818 0.825661 0.034023
C 1.211462 2.121527 0.032626