215
Fe1 H92 C108 N5 O9
C 5.745217 5.531631 -0.655690
C 5.484528 6.293396 0.480456
C 4.193729 6.405903 0.993986
C -1.912205 -3.783007 3.222521
C -2.945539 -4.502582 2.618657
C 3.147957 5.737893 0.377329
C -2.462129 -4.071306 0.314829
C 3.955515 7.237986 2.245473
C -2.550795 -3.012803 -0.557565
C 7.147660 5.372246 -1.174132
C -1.618512 -2.897015 -1.605907
C 3.315171 0.692426 -2.095177
C -0.634490 -3.867387 -1.708052
C 3.826282 -0.394673 -1.476972
C -0.555145 -4.945579 -0.855063
C 4.277901 -2.718644 0.147884
C -1.491134 -5.044022 0.162693
C 4.555774 -3.754880 -0.720032
Fe 0.096373 -0.173643 0.515791
C 3.548658 -4.296320 -2.812257
C -1.682948 -1.715692 -2.548576
C 3.307366 -3.143124 -3.511624
C -3.595790 -5.557335 3.246323
H -0.930298 3.590886 -2.816399
C -3.171388 -5.920639 4.531254
H -3.093313 3.241646 -1.629988
C -2.144741 -5.266692 5.141204
C 3.330081 -3.147811 -4.905171
C -1.525803 -4.202564 4.506454
C 3.799629 -5.503426 -3.480072
C -0.440166 -2.224317 5.364797
C 3.842945 -5.491706 -4.888200
C 3.103129 -1.851638 -5.680301
C 3.609932 -4.331478 -5.564143
C 5.817161 -4.286944 -0.864493
H 0.108130 -0.817980 -5.510831
C -0.339825 0.459443 5.816349
C 6.838066 -3.780663 -0.091982
C -1.569689 -0.168721 5.812643
C 6.618987 -2.762944 0.839030
C -1.614186 -1.535212 5.596954
C 5.326751 -2.278226 0.949395
C -2.842635 0.628203 6.027033
C 5.483171 -1.157845 3.088686
C 5.444933 0.107858 3.682744
H -3.150140 -1.875077 -6.324762
C -3.360633 -1.345356 2.713085
C 5.866489 0.255524 5.011816
C -3.869312 -0.259899 2.125343
C 6.289838 -0.853138 5.703852
C -4.426197 1.861092 0.277347
C 6.292402 -2.100090 5.126355
C -5.357767 1.348716 -0.603774
C 5.875979 -2.247756 3.804060
C -5.412810 0.243804 -2.758561
C 6.792734 -3.302508 5.912469
C -5.841746 1.331371 -3.490307
C 5.816402 1.626702 5.647630
C 2.031329 -3.786523 1.698253
C 0.547960 -5.981580 -0.985662
C 0.850118 -3.979660 2.298608
C -6.332354 1.155579 -4.790517
C -5.862363 -1.225818 -4.602906
C -6.314785 -0.142938 -5.328596
C -5.404476 -1.026587 -3.300476
C -5.856171 -2.615747 -5.188272
C -6.862918 2.318151 -5.566506
C -6.697286 1.726786 -0.585071
C -7.102639 2.695518 0.309930
C -6.196456 3.258053 1.181074
C -4.876458 2.845527 1.157264
C -4.277290 4.495629 2.733375
C -4.260420 5.698047 2.069649
C -4.562543 6.860619 2.782622
C -4.914855 6.743424 4.128637
C -4.920946 5.531631 4.784690
C -4.579357 4.380778 4.079841
C -5.265104 5.435531 6.240275
C 0.783600 -1.607873 5.357669
C -4.535898 8.197342 2.087895
C 0.852163 -0.229662 5.593795
C 2.184263 0.471162 5.567997
H 2.015442 3.283836 -6.270588
H 2.837041 5.344119 -5.571505
H 3.009179 5.829305 -3.298507
H 4.860271 4.338588 -2.037615
H 6.199400 6.745768 0.911626
H 2.267251 5.796491 0.728211
H -4.307390 -6.016738 2.817420
H 3.936206 -6.307381 -2.993845
H -3.236485 -2.362607 -0.454719
H -3.606281 -6.635527 4.983361
H 5.065356 -6.762097 -5.975191
H 4.052286 -7.547302 -5.015757
H -1.465941 -5.782349 0.758423
H 3.523477 -6.893355 -6.377334
H 3.858752 8.182576 1.997855
H 3.138580 6.933280 2.692071
H 4.717243 7.137199 2.855501
H 7.120535 5.151920 -2.129595
H 3.759193 1.237616 -2.734544
H 7.641357 6.209016 -1.044008
H -2.079764 -1.999303 -3.398969
H 4.697763 -0.752351 -1.599102
H -2.233179 -1.010179 -2.150235
H 3.126064 -2.336824 -3.043657
H -0.778416 -1.375827 -2.709113
H 3.643107 -4.333822 -6.514026
H -1.853984 -5.538584 6.005043
H -0.305172 1.394657 5.975038
H 2.425089 -1.996959 -6.370489
H -2.445334 -1.996959 5.609049
H 2.798728 -1.153157 -5.064310
H -2.649673 1.584512 5.928088
H 3.943607 -1.572714 -6.100643
H -3.512936 0.358655 5.364680
H 5.980197 -4.987769 -1.482559
H -3.186552 0.457099 6.929915
H 7.715182 -4.132247 -0.196001
H 7.324942 -2.418860 1.373208
H 5.135987 0.860249 3.191204
H 6.587987 -0.754695 6.601806
H -3.806401 -1.896172 3.347299
H 5.866752 -3.107965 3.401367
H -4.733353 0.110202 2.268209
H 7.685849 -3.553305 5.595211
H -5.804796 2.200956 -3.111463
H 6.837122 -3.075151 6.864835
H 0.375320 -6.722251 -0.369499
H -6.622439 -0.278884 -6.218033
H 0.572788 -6.319101 -1.905660
H -5.089046 -1.762570 -2.786715
H -6.593323 -3.136092 -4.804081
H 6.460089 1.666548 6.386242
H -5.968519 -2.561838 -6.159893
H 6.042867 2.304088 4.978617
H 2.787344 -4.361949 1.733168
H -5.004162 -3.054056 -4.980795
H 0.596345 -4.739316 2.810306
H -7.841692 2.292368 -5.562226
H -6.554220 3.152578 -5.154592
H 4.913772 1.793119 5.991230
H 0.013954 -3.785351 -2.396005
H -6.537142 2.268929 -6.491072
H -7.322061 1.324340 -1.179649
H 1.409707 -5.569055 -0.766724
H -8.011405 2.974442 0.325907
H -6.476414 3.926063 1.795834
H -4.046665 5.737893 1.144018
H -5.158598 7.523941 4.608602
H -4.554058 3.534632 4.513606
H -4.441242 5.419124 6.770635
H -5.805694 6.211360 6.499658
H -5.772851 4.615168 6.402030
H -5.453127 8.482594 1.893824
H 1.573929 -2.109466 5.195388
H -4.102934 8.857617 2.668992
H -4.032823 8.119290 1.250920
H 2.428405 0.677425 4.643207
H 2.124438 1.303245 6.084553
H 2.866643 -0.110124 5.965484
H -0.705736 3.138514 -5.339663
H 6.177646 -4.054899 5.783766
H -3.538825 0.527416 -6.626667
H -2.053237 -1.879764 -7.489388
H -1.669103 -2.404797 -6.026877
H -2.864050 3.797149 -6.841992
H -4.096231 2.829120 -6.517109
H -3.369866 3.623700 -5.333289
N -0.767333 1.252617 -0.602337
N -1.693107 -0.514211 1.346553
C 4.147991 -6.790224 -5.630567
O -3.405325 -4.148186 1.355725
O -0.436039 -3.608152 5.162673
O -4.878924 0.337326 -1.458798
O -3.918941 3.314541 2.044521
N 0.896002 0.785947 1.689548
N 0.701791 -1.946800 1.181920
N 1.664899 -0.116218 -0.683299
C -2.059405 1.723739 -0.521272
O 1.891741 1.204801 2.059605
C -3.043719 1.287775 0.357708
O 1.159772 1.324105 -4.813864
C -2.848368 0.246851 1.230567
O 2.311944 4.281866 -1.277571
C -2.030522 -1.541540 2.221286
O 3.460732 -4.304289 -1.419409
C -1.252980 -2.650437 2.501805
O 5.007259 -1.201910 1.782048
C 0.032937 -2.822244 2.023753
C -0.187891 2.008523 -1.596662
C -1.105862 2.954987 -2.133944
C -2.282489 2.770757 -1.482133
C -0.135747 1.176674 -5.330429
C -0.994296 2.252522 -5.526557
C -2.283050 2.015789 -6.002504
C -2.662113 0.700864 -6.303478
C -1.777250 -0.351545 -6.138662
C -0.502738 -0.100748 -5.637413
C -2.199195 -1.750850 -6.529113
C -3.236811 3.166641 -6.192198
H 7.596436 4.650326 -0.687129
C 1.934085 -2.536055 0.985955
C 2.955646 -2.021804 0.190401
C 2.807017 -0.912205 -0.596823
C 1.974514 0.869624 -1.608034
C 1.134289 1.871874 -2.030842
C 1.654397 2.857950 -3.036192
C 1.594734 2.585355 -4.401082
C 2.050779 3.494786 -5.344421
C 2.555912 4.704236 -4.927198
C 2.656846 4.994879 -3.582735
C 2.236793 4.054977 -2.650230
C 3.401331 4.980815 -0.760537
C 4.697457 4.870652 -1.266890