111
Co1 H43 C60 N4 Cl1 O2
H -1.187911 0.989379 5.630675
H 6.584678 1.433477 -1.196712
H 6.556140 2.905009 -1.837764
H -3.392104 -0.697608 -4.474177
H 3.329592 0.697710 2.998720
H 5.614364 0.760734 3.333314
H 3.902044 -1.383541 -0.432663
H 2.334096 2.817069 -1.020857
H 2.807502 1.971377 0.253749
H 5.824207 3.362298 1.444511
H 0.047645 -2.465206 0.225306
H -1.156015 -2.199919 -0.797509
H 2.167900 -3.473587 -0.673094
H 3.134857 -4.964173 -2.152424
H 1.174083 -1.415786 -4.289592
H 1.793540 -1.550628 -6.526520
H -1.105653 -3.240545 -3.000740
H 0.482440 -0.518796 -8.165137
H -1.367537 0.697710 -7.572320
C -2.200530 -0.320930 -2.715591
H -2.025605 0.870659 -5.335597
C -4.451056 -0.354641 -2.764528
C -3.971271 -0.124531 -1.409400
C -4.861006 0.057212 -0.311165
C -4.468683 0.070403 1.020054
C -5.352878 0.187657 2.162409
C -4.601975 0.042556 3.264343
C -3.234637 -0.177295 2.832276
C -2.158562 -0.474826 3.658050
C -0.838900 -0.706402 3.200122
C 6.117987 -0.326793 1.686196
C 0.237343 -1.203264 4.047311
C 1.358745 -1.182744 3.325276
H 2.115859 -5.425859 -4.166806
C 1.015945 -0.688814 2.017125
H -0.079940 -4.650520 -4.551636
C 1.911556 -0.423527 1.003477
C 1.406253 -0.168501 -0.312215
C 0.363081 -0.813396 -0.971507
C 0.175565 -0.115737 -2.194473
C -3.383374 -0.504139 -3.544849
C 1.125399 0.895576 -2.239555
C -0.904707 -0.254975 -3.147573
C -6.325711 0.186191 -0.621621
C -6.779811 1.261993 -1.371643
C 7.251140 2.881559 0.088006
C -8.139595 1.385109 -1.711065
C 6.762625 3.324191 1.297064
C -9.024294 0.411905 -1.282060
C 7.615428 3.705265 2.278517
C -8.581105 -0.638981 -0.517475
C 8.961782 3.634913 2.108362
C -7.241466 -0.754769 -0.192757
C 9.467084 3.117531 0.940625
C -2.409534 -0.559835 5.135326
C 8.610924 2.756977 -0.093056
C -3.286343 -1.496398 5.662269
C -3.575087 -1.480275 7.028952
C -2.990884 -0.543712 7.848686
C -2.101149 0.360606 7.349417
C -1.805690 0.359140 5.981277
C 3.369882 -0.379557 1.260661
C 3.908759 0.272666 2.376679
C 5.260149 0.304911 2.578445
C 6.383229 2.386162 -1.013113
C 5.605970 -0.936512 0.567620
C 4.244508 -0.962894 0.347602
C 2.732798 1.958186 -0.733472
C 4.105172 1.827742 -1.329726
C -0.170088 -2.202851 -0.703974
C 0.427209 -3.218560 -1.668383
C 1.694494 -3.724216 -1.457191
C 2.288770 -4.584564 -2.353608
C -0.524639 -0.297480 -4.576255
C 1.676028 -4.889424 -3.516637
C 0.640242 -0.995139 -4.953027
C 1.011245 -1.071353 -6.278561
C 0.378358 -4.405753 -3.756403
C 0.239022 -0.446978 -7.249885
C -0.231027 -3.571786 -2.832499
C -0.858877 0.260941 -6.899651
C -1.259762 0.360606 -5.567697
N -2.614005 -0.134057 -1.378293
N -3.171013 -0.095071 1.460201
N -0.363480 -0.462074 1.948334
N 1.855989 0.865823 -1.132682
Cl -0.791560 2.414303 0.125831
O 4.392069 1.182847 -2.302478
O 4.973755 2.531263 -0.614019
H 7.054727 -0.335587 1.849633
H 6.193531 -1.342502 -0.059013
Co -1.523325 0.268855 0.377464
H -5.359593 -0.389817 -3.040616
H -6.291297 0.340087 2.136361
H -4.909689 0.076266 4.163258
H 0.155085 -1.490535 4.948667
H 2.223299 -1.443634 3.619511
H 7.266249 4.026247 3.101676
H 1.234518 1.514088 -2.951626
H 9.549342 3.939772 2.789753
H -6.163712 1.925942 -1.659705
H 10.405502 3.006141 0.840413
H -8.443448 2.123807 -2.225704
H 8.958424 2.428667 -0.914170
H -9.944246 0.470531 -1.518628
H -9.200562 -1.291204 -0.209882
H -6.947686 -1.490535 0.330698
H -3.689242 -2.144224 5.096591
H -4.177757 -2.119307 7.393852
H -3.209121 -0.526124 8.773780
H -1.683141 0.989379 7.927031