137
Fe1 H64 C64 N8
C -3.302516 2.654821 -3.421852
N 0.965283 -0.558254 1.650902
C -3.953274 -7.980776 2.114768
H -0.644292 -4.996699 -0.683794
N 0.124240 -1.891448 -0.609268
H -3.939649 3.340031 0.024970
H -1.399430 4.508746 1.938057
N 2.274420 -1.711989 2.985069
H 1.237779 -2.028936 -4.041300
H 1.288584 -3.301470 -4.953666
C -1.117465 -3.982231 3.153712
H 2.004464 -1.982958 -5.408888
H 0.988376 4.516161 -3.941420
H -4.043567 -2.196530 2.170470
H 1.459471 3.120527 -3.403604
H -4.431528 -6.462041 -0.005762
H -4.311444 0.167595 2.744780
H 1.496420 -0.895817 4.705887
H -2.313909 1.865790 -0.979593
H 6.830880 -5.290360 -4.258347
H 0.279424 3.872479 -2.698682
H 6.424445 -4.572521 -5.591361
H -4.336847 -4.784610 -1.611526
H 5.655451 -5.856920 -5.126535
H -2.937417 -4.081601 -1.701802
H -4.147485 -3.337065 -1.039137
H -3.812638 3.933287 5.556788
N -0.965283 0.558254 -1.650902
N -0.124240 1.891448 0.609268
N -2.274420 1.711989 -2.985069
H -2.362404 -6.291480 3.394001
H 3.701792 -3.070100 2.654504
H 3.976597 -2.186148 3.920292
H -1.237779 2.028936 4.041300
H -0.066969 -0.393032 -3.207686
H -1.288584 3.301470 4.953666
H 2.902778 -3.328166 3.977915
N -1.707258 -0.374789 0.951934
H -4.537755 -8.305584 1.427132
H -2.004464 1.982958 5.408888
H -1.496420 0.895817 -4.705886
C 2.466322 4.093318 -1.017432
H -4.429218 -7.940732 2.946461
H -3.202985 -8.572549 2.203123
H -6.830880 5.290360 4.258347
C 0.243168 4.163916 0.785211
H -6.424445 4.572521 5.591361
H -5.655451 5.856920 5.126535
C 0.709645 2.916595 0.234334
C 4.412360 -3.161461 -1.997601
H -3.701792 3.070100 -2.654504
C 5.329841 -3.905108 -2.735945
H -3.976597 2.186148 -3.920292
C 2.098914 4.665365 -2.239042
C 3.479176 1.500344 -1.918849
C 5.123391 -4.198621 -4.070688
H -2.902778 3.328166 -3.977915
H -0.988376 -4.516161 3.941420
C 1.127395 -2.491972 -1.348573
H -1.459471 -3.120527 3.403604
C 3.838733 6.015171 -0.554718
H -0.279424 -3.872479 2.698682
C 4.652065 -2.939583 -0.529748
C 1.817642 2.813220 -0.594286
C 2.259640 -1.853628 -1.850086
C 3.351242 4.767257 -0.169028
C 2.292894 1.613360 -1.112894
C 0.879609 -3.896060 -1.470926
C -4.412360 3.161461 1.997601
C 3.030250 -2.976662 -3.966390
C 3.727656 4.191354 1.166292
C 3.623045 0.203487 -2.241923
C -5.329841 3.905108 2.735945
C -5.123391 4.198621 4.070688
C -2.466322 -4.093318 1.017432
C -1.127395 2.491972 1.348573
C 3.257023 -2.675733 -2.619354
C 2.607881 5.913279 -2.580170
C 2.507658 -0.501598 -1.661850
C 3.466475 6.607092 -1.749437
C -0.243168 -4.163916 -0.785211
C -4.652065 2.939583 0.529748
Fe 0.000000 0.000000 0.000000
H 0.644292 4.996699 0.683794
C 3.953274 7.980776 -2.114768
C 1.925948 -1.457927 1.720434
C -2.259640 1.853628 1.850086
C -0.709645 -2.916595 -0.234334
C -0.879609 3.896060 1.470926
C 0.702486 -0.231370 2.938586
C -2.098914 -4.665365 2.239042
C -3.030250 2.976662 3.966390
C 3.970362 -3.734547 -4.661517
C 1.117465 3.982231 -3.153712
H 4.043567 2.196530 -2.170470
C -3.479176 -1.500344 1.918849
C 1.777691 -2.533203 -4.654218
H 6.103453 -4.212118 -2.320290
H 4.431528 6.462041 0.005762
C -3.838733 -6.015171 0.554718
H 5.486873 -3.340031 -0.278512
C 1.490416 -0.934378 3.776618
C -3.257023 2.675733 2.619354
H 3.939649 -3.340031 -0.024970
C 6.096757 -5.057507 -4.830160
H 4.336847 4.784610 1.611526
C -2.507658 0.501598 1.661850
H 4.680931 -1.996306 -0.349580
H 2.937417 4.081601 1.701802
C -1.817642 -2.813220 0.594286
H 4.147485 3.337065 1.039137
C -3.351242 -4.767257 0.169028
C 3.302516 -2.654821 3.421852
C -1.925948 1.457927 -1.720434
C -2.292894 -1.613360 1.112894
H 1.399430 -4.508746 -1.938057
H 2.362404 6.291480 -3.394001
C -0.702486 0.231370 -2.938586
H 0.066969 0.393032 3.207686
N 1.707258 0.374789 -0.951934
C -3.727656 -4.191354 -1.166292
C -3.970362 3.734547 4.661517
C -3.623045 -0.203487 2.241923
H 4.311444 -0.167595 -2.744780
H 4.537755 8.305584 -1.427132
H 4.429218 7.940732 -2.946461
C -2.607881 -5.913279 2.580170
H 2.313909 -1.865790 0.979593
C -1.777691 2.533203 4.654218
H -6.103453 4.212118 2.320290
C -1.490416 0.934378 -3.776618
H 3.202985 8.572549 -2.203123
C -3.466475 -6.607092 1.749437
H -5.486873 3.340031 0.278512
C -6.096757 5.057507 4.830160
H 3.812638 -3.933287 -5.556788
H -4.680931 1.996306 0.349580