190
Co2 H80 C104 N4
Co 1.729705 -2.416469 -5.962531
C -1.390136 5.176141 -0.943848
H 3.771087 -3.239271 -1.029148
H 3.273677 -2.363865 -3.226625
N -1.409311 1.132406 0.977964
H -0.305572 -0.592974 -5.812214
H 1.106864 -0.662578 -7.973050
H 3.568800 -0.836589 -7.298545
H 3.702916 -0.849974 -4.760237
H 0.590883 -3.587292 -2.866311
H -1.086303 -4.008933 -1.387019
H -3.035946 -4.998115 -2.059674
H -3.266986 -5.647308 -4.236254
H -1.616435 -5.212282 -5.785689
H -1.531546 -2.627557 -6.866298
H -3.143675 -2.397328 -8.511659
H -2.789146 -3.339662 -10.622812
H -0.874225 -4.486792 -11.043413
H 0.752989 -4.695604 -9.420495
H 2.669908 -2.727948 -9.166880
H 4.208855 -3.042505 -10.837110
H 5.716568 -4.771901 -10.705031
H 5.712581 -6.149261 -8.859933
H 4.173730 -5.861474 -7.180184
H 4.830717 -3.917912 -5.248970
H 6.310492 -4.662141 -3.655396
H 5.546993 -5.955172 -1.884478
H 3.370710 -6.603026 -1.809553
H 1.869087 -5.902969 -3.434512
H 3.479464 -6.611058 1.775496
H 0.718835 -4.683558 1.422237
H 1.269816 -6.115797 1.103002
H 1.310816 -4.998115 0.004160
C 2.209084 -2.023875 -0.290442
C 3.108833 -2.618188 -1.230139
C 2.838583 -2.134974 -2.436753
C 1.753182 -1.192641 -2.318865
C 1.145325 -0.469828 -3.331975
C 1.566676 -0.667932 -4.740398
C 0.670293 -0.670609 -5.859286
C 1.451654 -0.710766 -7.056694
C 2.807003 -0.793755 -6.684910
C 2.878067 -0.781708 -5.285310
C 0.772321 -4.102630 -5.471706
C 0.803168 -3.884448 -6.918176
C 2.246344 -4.071844 -6.929467
C 2.215050 -4.307427 -5.486230
H -0.274229 0.345344 -1.142830
C -0.301846 -4.331521 -4.510120
C -0.188601 -3.995547 -3.166765
C -1.195191 -4.249870 -2.277439
H -0.083984 1.554047 -4.920295
C -2.350358 -4.846860 -2.671036
H -1.727900 2.944792 -3.757492
C -2.489059 -5.214959 -3.965600
C -1.493381 -4.961974 -4.898328
C -0.217060 -3.707761 -7.956761
C -1.392114 -3.006365 -7.704587
C -2.358930 -2.864479 -8.690466
C -2.146425 -3.430683 -9.956346
C -1.008801 -4.105308 -10.206474
C -0.033806 -4.240500 -9.225120
C 3.255988 -4.247193 -7.976560
C 3.285189 -3.422651 -9.097254
C 4.201542 -3.611386 -10.101969
C 5.101682 -4.634032 -10.021422
C 5.090253 -5.461250 -8.919052
C 4.176375 -5.284563 -7.910253
C 3.185907 -4.806703 -4.488045
C 4.527949 -4.456006 -4.551163
C 5.411358 -4.893709 -3.598358
C 4.958784 -5.683448 -2.551931
C 3.663484 -6.054224 -2.502067
C 2.756929 -5.629907 -3.472218
C 2.764113 -4.754500 1.425066
C 3.712499 -5.711558 1.800777
H -6.138471 3.804136 -2.565333
C 1.390136 -5.176141 0.943848
H -5.738221 1.552708 -2.267379
H -4.285587 1.171224 -2.716228
H -4.661535 1.168547 -1.194052
N 1.409311 -1.132406 -0.977964
H -6.366752 6.803808 -1.774140
H -5.588608 7.095610 -3.101933
H -6.716629 6.007375 -3.078503
H 0.274229 -0.345344 1.142830
C 0.173745 0.519354 -3.085962
C -0.333804 1.477750 -4.026398
C -1.235539 2.248750 -3.386267
H 0.083984 -1.554047 4.920295
C -1.294757 1.800339 -2.036029
H 1.727900 -2.944792 3.757492
H 6.138471 -3.804136 2.565333
H 5.738221 -1.552708 2.267379
H 4.285587 -1.171224 2.716228
H 4.661535 -1.168547 1.194052
H 6.366752 -6.803808 1.774140
H 5.588608 -7.095610 3.101933
C -2.154930 2.353156 -1.061097
H 6.716629 -6.007375 3.078503
C -3.115199 3.406589 -1.503598
C -4.982863 5.359521 -2.204024
C -5.288930 4.046412 -2.273925
C -4.396734 3.046521 -1.933927
C -4.808016 1.604912 -2.037180
C -0.173745 -0.519354 3.085962
C -6.008021 6.414292 -2.573312
C 0.333804 -1.477750 4.026398
C 1.235539 -2.248750 3.386267
C 1.294757 -1.800339 2.036029
N -0.424622 0.768323 -1.876272
Co -1.729705 2.416469 5.962531
H -3.771087 3.239271 1.029148
H -3.273677 2.363865 3.226625
H 0.305572 0.592974 5.812214
H -1.106864 0.662578 7.973050
H -3.568800 0.836589 7.298545
H -3.702916 0.849974 4.760237
H -0.590883 3.587292 2.866311
H 1.086303 4.008933 1.387019
H 3.035946 4.998115 2.059674
H 3.266986 5.647308 4.236254
H 1.616435 5.212282 5.785689
H 1.531546 2.627557 6.866298
H 3.143675 2.397328 8.511659
H 2.789146 3.339662 10.622812
H 0.874225 4.486792 11.043413
H -0.752989 4.695604 9.420495
H -2.669908 2.727948 9.166880
H -4.208855 3.042505 10.837110
H -5.716568 4.771901 10.705031
H -5.712581 6.149261 8.859933
H -4.173730 5.861474 7.180184
H -4.830717 3.917912 5.248970
C 2.154930 -2.353156 1.061097
H -6.310492 4.662141 3.655396
C 3.115199 -3.406589 1.503598
H -5.546993 5.955172 1.884478
H -3.370710 6.603026 1.809553
H -1.869087 5.902969 3.434512
C 4.982863 -5.359521 2.204024
H -3.479464 6.611058 -1.775496
C 5.288930 -4.046412 2.273925
C 4.396734 -3.046521 1.933927
H -0.718835 4.683558 -1.422237
H -1.269816 6.115797 -1.103002
C 4.808016 -1.604912 2.037180
H -1.310816 4.998115 -0.004160
C 6.008021 -6.414292 2.573312
N 0.424622 -0.768323 1.876272
C -2.209084 2.023875 0.290442
C -3.108833 2.618188 1.230139
C -2.838583 2.134974 2.436753
C -1.753182 1.192641 2.318865
C -1.145325 0.469828 3.331975
C -1.566676 0.667932 4.740398
C -0.670293 0.670609 5.859286
C -1.451654 0.710766 7.056694
C -2.807003 0.793755 6.684910
C -2.878067 0.781708 5.285310
C -0.772321 4.102630 5.471706
C -0.803168 3.884448 6.918176
C -2.246344 4.071844 6.929467
C -2.215050 4.307427 5.486230
C 0.301846 4.331521 4.510120
C 0.188601 3.995547 3.166765
C 1.195191 4.249870 2.277439
C 2.350358 4.846860 2.671036
C 2.489059 5.214959 3.965600
C 1.493381 4.961974 4.898328
C 0.217060 3.707761 7.956761
C 1.392114 3.006365 7.704587
C 2.358930 2.864479 8.690466
C 2.146425 3.430683 9.956346
C 1.008801 4.105308 10.206474
C 0.033806 4.240500 9.225120
C -3.255988 4.247193 7.976560
C -3.285189 3.422651 9.097254
C -4.201542 3.611386 10.101969
C -5.101682 4.634032 10.021422
C -5.090253 5.461250 8.919052
C -4.176375 5.284563 7.910253
C -3.185907 4.806703 4.488045
C -4.527949 4.456006 4.551163
C -5.411358 4.893709 3.598358
C -4.958784 5.683448 2.551931
C -3.663484 6.054224 2.502067
C -2.756929 5.629907 3.472218
C -2.764113 4.754500 -1.425066
C -3.712499 5.711558 -1.800777