78
Co1 H33 C42 N2
Co 0.356015 0.626354 -0.532819
H 3.636426 -2.452834 -2.189123
H 4.358230 -4.179326 -3.826472
H -1.395883 -3.205001 -2.785899
H 2.469778 -5.636055 -4.160211
H 0.617683 -4.814066 -2.823483
H 1.410063 -2.624213 -0.316433
H -0.304088 -3.639797 0.929976
H -2.541145 -4.518912 0.741771
H -3.250116 -4.344359 -1.572297
H -0.868699 -0.719993 -2.601976
H 0.018853 1.641239 -3.063087
H 2.319001 1.841182 -1.991961
H 2.882542 -0.389929 -0.862970
H 1.829244 -1.072274 2.078433
H 1.985367 -2.989189 3.353091
H 0.083013 -3.988904 4.187573
H -1.973326 -3.049489 3.780081
H -2.151905 -1.142096 2.503729
H -2.429933 -1.230959 -0.462178
H -4.598553 -1.630845 -1.118096
N 3.140253 -3.086622 -2.493496
H -6.216463 0.003610 -0.894647
N -1.393744 -3.405578 -1.950293
H -5.620841 2.072863 -0.085723
H -3.437251 2.510833 0.527640
H -1.720962 3.190005 -1.684663
H -2.005406 5.386205 -2.325082
H -1.061180 7.084135 -1.102415
H 4.681171 3.142399 3.917907
H 0.170699 6.592211 0.761704
H 0.471183 4.405532 1.420209
H 4.827670 2.878982 1.636301
H 0.888225 1.930046 3.771317
H 2.712518 2.656823 4.964841
H 3.019418 2.114121 0.444251
C 3.525215 -4.096810 -3.423476
C 2.490095 -4.885792 -3.607927
C 1.461391 -4.424971 -2.861873
C 1.828174 -3.321158 -2.177711
C 0.969495 -2.553757 -1.190478
C -0.375733 -3.167868 -1.045338
C -0.803469 -3.653762 0.146507
C -2.042833 -4.157428 0.045178
C -2.439557 -4.051109 -1.223901
C 0.978050 -1.087191 -1.569188
C -0.002534 -0.367713 -2.310120
C 0.481877 0.940169 -2.558353
C 1.742627 1.048392 -1.967767
C 2.055943 -0.185860 -1.347583
C -0.284839 0.303842 1.320101
C -1.301781 0.976984 0.494244
C -0.452726 2.162996 0.436041
C 0.566354 1.489854 1.233668
C -0.178975 -0.907242 2.133120
C 1.057181 -1.469621 2.410613
C 1.151283 -2.617866 3.176776
C 0.017783 -3.212935 3.679891
C -1.206610 -2.654998 3.430797
C -1.313544 -1.512149 2.664193
C -2.692991 0.688812 0.086218
C -3.064051 -0.553374 -0.393823
C -4.369714 -0.797432 -0.775530
C -5.335327 0.176894 -0.652728
C -4.978168 1.407338 -0.167320
C -3.665020 1.670120 0.201416
C -0.608849 3.546094 -0.050461
C -1.337069 3.867590 -1.178340
C -1.506025 5.187214 -1.565609
C -0.944622 6.200259 -0.840307
C -0.214263 5.905423 0.266727
C -0.037822 4.590559 0.665020
C 3.948673 2.840898 3.429758
C 1.757598 1.944645 1.972915
C 4.033151 2.682213 2.079381
C 1.684883 2.113486 3.327695
C 2.780955 2.555265 4.043061
C 2.942425 2.228374 1.364507