113
Fe1 Co1 H43 Pd1 C63 N4
Fe -3.857807 0.176234 -6.837818
H 2.202381 -2.400798 -5.410868
H 3.099299 -2.137226 -2.923973
H 3.756120 0.825686 2.807001
H -2.644247 2.929067 -5.913478
H 0.326103 -1.478945 -6.644149
H 3.237056 -5.449402 1.887116
H -0.152803 2.090311 3.301449
H -2.294794 -1.721743 3.903420
H 5.345317 -4.883307 2.033289
H -3.793778 -2.011283 2.161112
H 5.964209 -3.070763 3.337237
H 4.336981 -1.708759 4.262724
H -3.052906 -2.485193 0.080547
H -0.765726 -2.679950 -0.334952
H 0.702986 -2.159298 1.352740
H 1.537989 -4.087398 2.682732
H -3.596720 1.311281 6.062270
H -1.716690 0.795823 4.821604
H -2.131988 -1.846388 -6.178563
H -3.293074 -1.904815 -8.479638
H -3.199403 0.411501 -9.472606
H -2.028407 1.965666 -7.821977
C 2.451479 -0.955697 -1.494624
C 3.169553 -1.463365 -0.381505
H -4.355505 0.982790 -4.279185
H -5.104687 -1.388058 -4.970415
C 2.832715 -0.753149 0.688362
H -6.162350 -1.197196 -7.301104
C 1.934496 0.273873 0.272014
H -6.071990 1.259346 -8.036632
C 1.434662 1.315176 1.064924
H -4.962376 2.594084 -6.179061
C 0.769331 2.404520 0.514589
Pd 0.465039 1.161707 -2.266862
C 1.626093 -1.736025 -5.108119
C 1.687804 -1.099817 -3.830558
C -2.138812 2.921277 -5.131999
C 2.476970 -1.465961 -2.763724
C -1.300445 1.839723 -4.677091
C 1.720718 1.373603 2.522582
C -1.027497 0.663388 -5.350172
C 2.933318 1.178846 3.204977
C 0.009938 -0.180562 -4.982421
C 2.771597 1.542393 4.556310
C 0.604700 -1.219269 -5.796530
C 1.442920 1.959174 4.736072
C 0.778870 1.848812 3.483005
C 1.708386 -1.946363 4.200499
C 1.548323 -1.360792 5.534674
C 0.323000 -1.617872 3.908178
C 0.173198 -1.027108 5.232749
C 2.754791 -2.753958 3.569815
C -0.633359 -1.864565 2.797093
C 2.427078 -3.866673 2.838970
C -1.980183 -1.861968 3.039102
C 3.461080 -4.663880 2.330478
C -2.879965 -2.068411 2.000180
C 4.696227 -4.363954 2.451617
C 5.064139 -3.264223 3.204771
C -2.441316 -2.348862 0.766579
C -1.078222 -2.437152 0.506010
C 4.092279 -2.452733 3.762206
H 0.762426 3.884677 2.039647
C -0.210671 -2.154105 1.528512
H -0.379917 5.346657 0.458532
H -1.334554 5.049327 -1.981264
H -2.482465 4.729925 -4.309601
C -0.991996 -0.585657 6.041558
C -1.871807 0.349179 5.622994
C -1.813346 0.259590 -6.557851
C -2.253038 -1.085535 -6.785114
C -2.898150 -1.114099 -8.054221
C -2.837584 0.149228 -8.600124
N 1.707189 0.112873 -1.076368
N 0.256751 2.491512 -0.775860
C -2.187536 1.007459 -7.690257
C -4.794886 0.738694 -5.118653
C -5.200094 -0.568778 -5.500480
C -5.788652 -0.457117 -6.779073
C -5.739939 0.899693 -7.188475
C -5.135330 1.629385 -6.168290
N -0.758755 2.221448 -3.469129
N 0.714480 -0.123433 -3.788921
H 3.467463 1.522918 5.247086
H 1.053287 2.305843 5.566842
C 0.522447 3.665250 1.169670
C -0.113596 4.468950 0.301492
C -0.309122 3.721081 -0.919133
H 3.481059 -2.947417 6.409725
H 4.853773 -2.731885 8.269034
H 4.639824 -0.905060 9.655975
H 2.985343 0.578993 9.335564
H 1.564158 0.398517 7.497836
C -1.000816 4.182007 -2.023379
C -1.241107 3.473090 -3.181741
C -2.064782 3.901556 -4.243548
H -0.581057 -1.829509 7.600296
H -2.487317 -1.301067 8.824754
H -4.035610 0.190776 7.998154
C 2.393828 -1.280293 6.744083
C 3.374842 -2.225516 6.984980
C 4.201805 -2.091782 8.097459
C 4.057304 -1.011527 8.939459
C 3.093551 -0.124731 8.735673
C 2.234653 -0.231199 7.631451
C -1.194820 -1.211478 7.273644
C -2.339745 -0.892076 8.001486
C -3.253759 0.019389 7.525443
C -3.006752 0.659492 6.366583
Co 1.441165 0.025751 4.134397
H 3.771934 -2.170984 -0.398529
H 3.129510 -0.899866 1.557967