148
Fe1 Si1 H67 C74 S1 N4
C 4.739877 1.236714 1.278654
C 2.869415 -1.441034 -8.522702
C -1.360132 -0.180806 7.260670
H 3.793753 4.410973 1.451813
C 1.156122 -1.044962 -2.995011
H 7.849014 0.565856 1.912915
C -2.211332 2.129297 -2.356290
H 3.172859 5.663621 -2.568503
C -5.924246 -3.927379 -1.030890
H 1.297729 0.302439 -7.311858
C 2.866303 -2.233178 -6.145658
C 0.180431 0.874754 -4.974976
C -2.868017 -2.905931 2.269632
C -3.493579 -5.047371 -0.288719
H 6.448501 -1.279952 0.531993
C -3.393987 0.446466 -3.595651
H 6.075032 -1.486516 2.040735
C -2.684394 0.857698 -2.468854
C -5.826210 -5.305102 -0.931250
C 3.569671 3.499439 1.255129
C 1.294617 3.120423 -2.000303
C -1.048907 -0.074681 5.889698
C -0.149467 -2.331722 5.965789
H -0.028089 1.407271 -5.746881
C -3.207252 2.593591 -4.544588
C -1.073805 -1.350070 7.971953
C -2.195771 -5.693594 0.108294
H -2.180210 3.876560 -3.369392
Fe 0.200350 -0.556790 0.338183
H 1.417550 6.755187 -1.572590
Si -1.303956 2.766801 -0.845611
C -0.491814 -2.386679 7.303786
H -0.907300 -2.428371 -4.344240
C -4.604652 -5.856571 -0.565701
C 2.979900 -3.175032 -3.830935
H 1.938852 0.118617 5.143493
H -4.126922 1.018780 -5.339461
H 9.078352 2.383237 2.653522
H -2.944267 5.557496 2.897403
C 0.525891 -3.502881 5.304991
H 3.757962 0.914550 3.730026
H -0.406228 5.566972 -0.841960
H 4.786560 0.992249 -1.424417
H 8.250494 3.442587 3.459694
C -2.486766 2.999138 -3.416894
H -2.717073 -3.233780 -2.922483
C -1.405260 -1.416398 9.459633
H 3.631916 0.150833 -3.433192
H -3.870161 4.270737 -1.420443
H -3.381538 3.186751 -5.238788
H -4.764933 6.351535 1.834687
H -5.924246 -1.403133 -1.094982
C -1.343015 1.196917 5.146709
H -4.830290 -1.213625 0.011826
H -4.416361 -1.257211 -1.501429
H -2.528782 -2.538285 4.247173
H -1.459724 4.081229 1.759492
C -7.002640 -6.190105 -1.250242
H 4.943729 -1.297008 0.971723
H -5.332918 5.676886 -0.223511
H 2.464822 -0.737959 -9.036085
H 3.824875 -1.365231 -8.573120
H 2.597093 -2.291925 -8.872474
S -0.994287 1.327867 0.566463
H -1.761612 0.535534 7.696174
N -1.033346 -1.738562 1.542188
H -6.733430 -3.552153 -1.290839
H 3.452962 -2.907826 -6.401091
N -0.493371 -1.679814 -1.261164
N 1.920179 -0.300196 -0.769578
H -0.627197 0.503318 -4.615129
N 1.394209 -0.341888 2.029042
H 0.602141 1.426222 -4.311723
H -3.644523 -3.417603 2.255011
H 3.096609 3.381944 -2.890670
H -3.697431 -0.429061 -3.653360
H -2.530338 0.249377 -1.781553
H 3.294237 3.429321 0.336445
H 2.852297 3.215177 1.827118
H 1.279055 2.197519 -2.111785
H -2.307812 -6.646819 0.134703
H -1.517301 -5.469974 -0.535244
H -1.931230 -5.377115 0.975722
H -0.317528 -3.171242 7.771374
H -4.520621 -6.781370 -0.504820
H 3.565003 -3.792828 -4.273542
H 3.463854 -2.714528 -3.140643
H 2.245409 -3.652593 -3.440862
H 0.681504 -3.300108 4.380303
H 1.364642 -3.675333 5.740360
H -0.035870 -4.277969 5.375758
H -1.811408 -0.590143 9.734194
H -2.015260 -2.140319 9.619947
H -0.600743 -1.560424 9.961505
C 7.074064 1.071842 1.833677
C 1.576275 -0.330517 -6.687218
H -1.746051 1.831769 5.742969
C 2.397909 3.823498 -2.464620
H -0.524493 1.560773 4.799205
H -1.943679 1.011199 4.420311
H -6.750548 -7.109218 -1.136270
H -7.729350 -5.981646 -0.656787
H -7.276518 -6.042288 -2.158008
C 0.211554 3.734429 -1.373433
C 2.432144 5.180375 -2.281621
C -0.017196 -1.638122 -2.557392
C 2.078903 -0.434747 -2.132519
C -0.972657 -2.322246 -3.422578
C -3.616513 -3.669648 -0.414282
C -2.430746 -2.797911 -0.187715
C 2.436812 -1.329224 -7.099275
C 0.991172 -0.489704 3.330317
C 7.116079 2.424929 2.105608
C -1.663576 -2.411315 -1.298422
C 1.982424 0.073135 4.215457
C 3.102833 0.328971 -0.361128
C -2.528782 4.014901 0.023950
C 2.972119 0.510898 3.437011
H 8.669091 3.738219 1.979196
C 3.952478 0.584806 -1.453920
C 1.101657 -0.224393 -5.364047
C 1.391096 5.832283 -1.682681
C -2.111740 -2.489013 1.135137
C -3.121665 5.294080 2.023423
C -1.963908 -2.769485 -2.636740
C 0.298697 5.110257 -1.242645
H 6.003450 4.075544 2.101544
C 2.458598 -2.178220 -4.826782
C -0.169697 -1.092339 3.788909
C -3.663196 4.507622 -0.545006
C -4.214065 5.748899 1.389913
C 1.568495 -1.162457 -4.436781
C -0.463804 -1.164352 5.238791
C -2.225337 4.399602 1.338326
C 3.409390 0.592387 0.986531
C -4.543963 5.377464 0.166879
C -1.109596 -1.708240 2.911599
C -3.646079 1.306832 -4.597759
C -4.852076 -3.087859 -0.754498
C 2.621991 0.258853 2.074316
C 4.791229 2.610647 1.490205
C 8.393657 3.054096 2.594148
C 3.316023 0.116722 -2.559646
C 5.976996 3.164010 1.922783
C -5.020137 -1.607801 -0.841925
C -2.258016 -2.426476 3.365984
C 5.875848 0.446466 1.441929
C 5.832276 -1.037382 1.227749