12
H6 C6
H -0.732143 0.672442 2.046057
C -0.795373 -0.815929 0.733678
H -0.617422 -2.035567 -0.820740
H 0.732143 -0.672442 -2.046057
C 0.795373 0.815929 -0.733678
C 0.365019 1.206262 0.482278
C -0.431530 0.395197 1.211500
H -1.337769 -1.375285 1.241453
C -0.365019 -1.206262 -0.482278
C 0.431530 -0.395197 -1.211500
H 1.337769 1.375285 -1.241453
H 0.617422 2.035567 0.820740