94
Co1 H35 Pd1 C53 N4
Co -0.944905 -0.349210 2.633076
H -3.040857 2.039234 -1.755398
H -2.546735 0.527361 0.088963
H -1.353171 2.666049 -6.690516
H -2.158760 2.327787 -4.165213
H -3.132958 -1.218506 1.113770
H -2.996613 -1.949588 3.567716
H -0.146004 2.143501 -0.130236
H -5.515444 2.813963 1.990438
H -3.869264 1.363923 2.688521
H -2.811658 2.836998 5.026622
C -1.580571 0.967465 -2.859966
C -2.423013 1.344524 -1.762829
C -2.153468 0.506750 -0.753794
C -1.143915 -0.437715 -1.194623
C -0.616018 -1.474324 -0.432326
H -1.070359 3.909979 1.348214
H -2.745521 5.353957 0.655958
H -4.963941 4.790188 0.941713
C -0.778343 1.983463 -6.429911
C -0.759287 1.328763 -5.153944
C -1.565591 1.618528 -4.066038
C -1.022070 -1.670734 0.984856
C -2.329253 -1.543431 1.570822
C -2.251438 -1.931402 2.932819
C -0.924682 -2.290275 3.208739
C -1.234616 1.636715 2.680392
C -1.088264 1.074157 4.019981
C -2.290303 2.481763 2.089190
C -4.620779 3.032196 1.856096
C -3.635952 2.164112 2.276806
C -1.869908 1.062033 5.254213
C -2.720569 2.109554 5.599296
H 0.470662 -3.948849 0.469884
H 2.259422 -4.872704 -0.902792
H 3.423479 -4.179206 -3.134154
H 4.615269 -3.591188 -5.414253
H 4.157559 -1.982323 -7.195796
H 2.280059 -0.181897 -7.611338
H 0.404595 1.656113 -8.049972
N -0.809361 -0.122489 -2.496373
H -0.588274 -2.632174 4.063658
H 0.796272 -2.316948 1.917678
H 2.740637 0.843800 2.319797
H 4.260067 1.051122 0.595102
H 3.599570 1.778566 -1.473014
H 1.373815 2.322937 -1.848063
C -1.962588 3.683259 1.478152
C -2.969666 4.546494 1.059593
C -4.294739 4.216719 1.238501
H 1.338820 2.028322 5.724254
H 3.735441 -1.863507 5.174020
H 1.924890 -1.446439 3.823075
Pd 0.639687 -0.920617 -3.637936
C 0.324698 -2.379993 -0.957648
C 0.790420 -3.589976 -0.325637
H -3.983548 2.792139 7.004937
C 1.763650 -4.107674 -1.087764
H -3.840454 0.997776 8.414417
C 1.901759 -3.269900 -2.241086
H -2.404114 -0.740817 7.904087
C 2.829004 -3.472372 -3.245619
H -1.173141 -0.682622 5.946145
C 2.958378 -2.734016 -4.387706
C 3.936870 -2.955887 -5.422132
C 3.683380 -2.068404 -6.399901
C 2.560031 -1.280339 -6.006677
C 1.936814 -0.334661 -6.760532
C 0.845274 0.417032 -6.381713
C 0.191916 1.428180 -7.174092
C -0.158832 -2.119325 2.016177
C 0.173854 1.286329 2.378611
C 0.305249 0.717709 3.731330
C 1.114167 1.466977 1.279723
C 2.457547 1.143265 1.486255
C 3.367597 1.266930 0.449049
C 2.977283 1.702185 -0.786385
C 1.650171 2.028322 -1.009793
C 0.742546 1.914356 0.022841
C 1.423509 0.346713 4.598401
C 1.816092 1.240257 5.600863
C 2.903445 0.966253 6.411460
C 3.622336 -0.196446 6.244387
C 3.251437 -1.076654 5.286104
C 2.164656 -0.823261 4.470351
N 0.996124 -2.227230 -2.162264
N 2.132596 -1.701044 -4.763537
N 0.228029 0.355199 -5.155691
C -3.431516 2.076819 6.784985
C -3.336881 1.019599 7.633827
C -2.487534 -0.018222 7.325174
C -1.754710 0.016938 6.141845
H 3.150887 1.572457 7.073695
H 4.355838 -0.375883 6.786764