88
Fe1 H37 C37 N5 Cl3 O5
H 1.070249 -0.024393 -7.673002
H 2.173761 1.130070 -7.786654
H 0.651465 1.506643 -7.467256
H -7.124291 -1.123985 -4.360259
H -6.486009 -2.565719 -4.639443
H -5.683538 -1.242336 -5.048115
H -2.088222 2.959137 -6.085448
C 1.358350 0.843875 -7.321428
C -6.289803 -1.638275 -4.388931
C -1.857659 3.824177 -6.531513
O 1.621667 0.729828 -5.927329
O -4.197199 -2.981025 -3.792256
Cl -0.215355 4.209357 -5.965837
Fe 0.748355 -0.679199 2.567240
Cl -1.734894 3.442225 -8.207415
H -0.921566 -0.625833 -1.452488
Cl -3.125162 4.915162 -6.075326
H -1.951459 -3.895558 3.669448
H -0.495181 1.104248 -2.661239
H 0.241948 2.522313 -2.714583
H 1.653439 0.163893 -3.313671
H 2.071702 1.656196 -3.681280
H 1.117027 -4.006378 7.919217
H 1.798147 -2.558188 7.916208
H 2.551815 -3.798725 7.242244
H -1.946479 -4.532504 5.899908
H 0.178211 -5.813926 6.966921
H 3.543561 2.482503 1.488947
H -1.409917 -6.241067 7.031504
H -4.095356 -3.947202 1.938018
H 3.092120 -1.449989 6.162029
H -2.951773 -5.059705 1.818355
H -3.743215 -4.581996 0.511140
H -2.056292 -2.582934 -2.082808
H -2.907322 -3.792270 -1.471589
H -3.741565 -1.107846 -1.512837
H -4.589108 -2.310726 -0.894111
H 3.530850 2.868759 -1.317078
C -0.545286 -0.658111 -0.581152
H 6.215284 2.154347 3.972203
C -1.295534 -3.266144 3.394221
H 5.543354 2.533072 2.570243
C 0.431476 0.265030 -0.290490
H 5.014457 -0.378371 6.438922
C 2.030348 1.386140 0.764119
H 5.625557 2.287762 6.260880
H 2.175897 3.584247 -1.776388
H 6.116081 1.216144 7.407772
H 2.746989 3.824177 -0.301538
C 1.495654 -2.084783 5.161858
C -0.311780 -2.950899 4.288308
C -1.410226 -2.740019 2.122481
H 5.103518 3.302356 3.902526
C -1.034566 -1.638275 0.283885
C 0.895539 1.338799 -1.169602
C 1.860632 1.999415 -0.527461
C 1.015309 -3.078934 6.095816
C -0.116192 -3.607211 5.554839
C -2.362768 -3.230639 1.148870
C -2.093080 -2.564644 -0.002054
C 0.383103 1.552907 -2.569795
C 1.301118 1.035389 -3.624149
C 2.998217 1.730434 1.686603
C 2.592986 -1.298284 5.368947
C 1.678358 -3.387723 7.407333
C -1.022858 -4.648703 6.089795
C -0.729445 -5.642854 6.745960
C 3.231342 1.077350 2.857352
C -3.374162 -4.295801 1.373341
C -2.714520 -2.825016 -1.382005
C 3.037418 -0.303057 4.529631
C -3.944083 -2.072947 -1.606345
C -4.601562 -2.293511 -2.937455
C 1.030899 1.512022 -4.909248
N 1.122692 0.325281 0.888945
C 4.299284 1.402278 3.774611
N 0.677824 -2.020227 4.061536
C 4.167825 0.564136 4.822537
N -0.601817 -1.770614 1.593710
N -0.327032 0.504960 3.197521
O -5.675552 -1.614605 -3.104632
O 0.407075 2.533072 -5.187029
C 5.387380 2.440543 3.533903
O -1.133276 1.255953 2.906296
C 4.971220 0.478062 6.030628
C 5.627349 1.406582 6.617429
C 2.646519 3.170017 -1.022366
N 2.457593 0.024023 3.331466