180
Zn2 H66 C99 N12 O1
C 2.233636 -0.050391 -7.619158
C 3.576890 -0.024245 -8.287465
C 3.886429 -0.955975 -9.285289
H -0.048884 0.476084 -3.254852
H -3.259495 -1.635756 9.507863
H -1.578245 3.935603 -1.856444
C 5.103982 -0.894176 -9.954179
H -5.303882 -1.527609 10.634406
H -2.241667 4.440686 -4.059393
C 6.026837 0.091032 -9.628849
H -6.855939 0.136193 10.090405
C 5.769673 0.335849 3.315171
H -1.831393 2.911177 -5.762699
H -0.382340 0.783887 -0.940592
C 2.102523 -0.845451 -6.464681
H -4.052110 -1.704685 6.221976
C 3.158236 -1.648829 -5.906970
H -3.100623 -2.914507 4.293016
C 2.639196 -2.304843 -4.856373
C 0.520437 1.285404 3.414276
C 1.254565 -1.916226 -4.738025
H -2.239921 -2.012489 1.962876
C 0.757697 2.123248 2.334489
C 0.352137 -2.423686 -3.794589
H -3.034281 -3.389879 0.254182
C 1.407676 3.328316 2.565783
C 0.882176 -3.326892 -2.727865
H -2.157866 -5.532618 -0.016754
C 1.801190 3.621858 3.866302
C 1.880102 -2.885985 -1.856929
H -0.494075 -6.315794 1.428248
H -0.302031 -4.938403 -3.143466
C 1.546645 2.707955 4.879118
C 2.354798 -3.703625 -0.839842
C 0.000000 2.431051 0.000000
H -1.723150 -3.095149 -1.962135
C 1.835932 -4.975245 -0.681667
H -3.947359 -2.136085 -2.510212
C 0.846037 -5.439921 -1.538547
C 0.372913 -4.618716 -2.557622
C 1.033541 -2.142028 3.764461
H -8.615752 -0.936960 -2.346960
C 1.938064 -2.557978 2.715732
H -7.997723 -2.582935 -3.885937
C 3.149856 -2.036257 3.016505
H -5.979524 -2.397540 -5.053186
C 3.004776 -1.301808 4.241913
C 4.037095 -0.575677 4.867952
C 5.376334 -0.645794 4.206550
C -4.994168 0.936006 -6.643144
C 6.977101 0.239586 2.630114
C -4.484207 1.524279 -7.743861
C 7.801315 -0.857335 2.829502
C -3.084212 1.161808 -7.826230
C 7.430148 -1.835413 3.735865
C -2.189466 1.609846 -8.805517
C 6.225165 -1.727266 4.426246
C -2.779737 2.358557 -9.962532
N 2.759485 0.355933 6.757044
N 0.104227 0.723277 7.822490
N 0.913078 1.545671 4.656282
C -2.421314 3.678902 -10.219448
N 0.377277 1.656195 1.063611
O 0.000000 3.650380 0.000000
C -0.804661 1.386421 -8.806518
C -0.099688 1.754834 9.876381
C -3.712542 1.742950 -10.797069
C -1.327367 1.304419 9.540767
C -4.279070 2.428674 -11.861068
C -1.193810 0.641275 8.262534
C -3.908252 3.743078 -12.105956
H 3.963071 0.840932 10.635172
C -2.977716 4.371757 -11.300858
H 4.916304 2.000839 12.420778
H 4.298274 4.214884 12.833291
H 2.718283 5.267833 11.479970
C -3.911918 0.193237 -6.028655
H 5.888740 0.997804 6.330985
C -5.743660 1.001370 8.638248
H 4.958204 2.075710 8.354907
C -4.526456 0.943137 7.960672
H 1.792984 4.113868 9.655859
N 0.953058 -1.015396 -5.734489
H 0.129193 2.226641 10.668597
H 2.124695 1.403059 -10.047713
N 1.698010 -1.380838 4.684345
H 6.379323 1.672833 -8.415919
H 4.341920 1.568251 -7.268042
C -2.233636 -0.050391 7.619158
C -3.576890 -0.024245 8.287465
C -3.886429 -0.955975 9.285289
C -5.103982 -0.894176 9.954179
Zn 0.861715 -0.121459 6.082017
C -6.026837 0.091032 9.628849
C -5.769673 0.335849 -3.315171
C -2.102523 -0.845451 6.464681
C -3.158236 -1.648829 5.906970
H 5.206114 1.086937 3.167960
C -2.639196 -2.304843 4.856373
C -0.520437 1.285404 -3.414276
H 7.236534 0.925310 2.024946
C -1.254565 -1.916226 4.738025
C -0.757697 2.123248 -2.334489
C -0.352137 -2.423686 3.794589
C -1.407676 3.328316 -2.565783
C -0.882176 -3.326892 2.727865
C -1.801190 3.621858 -3.866302
H 0.048884 0.476084 3.254852
C -1.546645 2.707955 -4.879118
H 3.259495 -1.635756 -9.507863
C -1.880102 -2.885985 1.856929
H 1.578245 3.935603 1.856444
H 5.303882 -1.527609 -10.634406
C -2.354798 -3.703625 0.839842
H 2.241667 4.440686 4.059393
H 6.855939 0.136193 -10.090405
C -1.835932 -4.975245 0.681667
H 1.831393 2.911177 5.762699
C -0.846037 -5.439921 1.538547
H 0.382340 0.783887 0.940592
C -0.372913 -4.618716 2.557622
C -1.033541 -2.142028 -3.764461
H 4.052110 -1.704685 -6.221976
C -1.938064 -2.557978 -2.715732
H 3.100623 -2.914507 -4.293016
C -3.149856 -2.036257 -3.016505
H 2.239921 -2.012489 -1.962876
C -3.004776 -1.301808 -4.241913
H 3.034281 -3.389879 -0.254182
C -4.037095 -0.575677 -4.867952
H 2.157866 -5.532618 0.016754
C -5.376334 -0.645794 -4.206550
H 0.494075 -6.315794 -1.428248
H 0.302031 -4.938403 3.143466
C -6.977101 0.239586 -2.630114
H 1.723150 -3.095149 1.962135
C -7.801315 -0.857335 -2.829502
H 3.947359 -2.136085 2.510212
C -7.430148 -1.835413 -3.735865
C -6.225165 -1.727266 -4.426246
N -2.759485 0.355933 -6.757044
H 8.615752 -0.936960 2.346960
N -0.104227 0.723277 -7.822490
H 7.997723 -2.582935 3.885937
H 5.979524 -2.397540 5.053186
N -0.913078 1.545671 -4.656282
N -0.377277 1.656195 -1.063611
C 3.712542 1.742950 10.797069
C 4.279070 2.428674 11.861068
C 4.994168 0.936006 6.643144
C 3.908252 3.743078 12.105956
C 4.484207 1.524279 7.743861
C 2.977716 4.371757 11.300858
C 3.084212 1.161808 7.826230
C 2.189466 1.609846 8.805517
C 2.779737 2.358557 9.962532
H -5.888740 0.997804 -6.330985
H -4.958204 2.075710 -8.354907
C 2.421314 3.678902 10.219448
C 0.804661 1.386421 8.806518
C 0.099688 1.754834 -9.876381
C 1.327367 1.304419 -9.540767
C 1.193810 0.641275 -8.262534
H -1.792984 4.113868 -9.655859
H -0.129193 2.226641 -10.668597
N -0.953058 -1.015396 5.734489
N -1.698010 -1.380838 -4.684345
H -2.124695 1.403059 10.047713
H -3.963071 0.840932 -10.635172
H -4.916304 2.000839 -12.420778
H -4.298274 4.214884 -12.833291
C 3.911918 0.193237 6.028655
C 5.743660 1.001370 -8.638248
H -2.718283 5.267833 -11.479970
H -6.379323 1.672833 8.415919
C 4.526456 0.943137 -7.960672
H -4.341920 1.568251 7.268042
Zn -0.861715 -0.121459 -6.082017
H -5.206114 1.086937 -3.167960
H -7.236534 0.925310 -2.024946