15
H8 C7
H -0.140585 -0.806064 -2.452094
C -0.447854 0.942116 -1.516519
H 0.428561 -2.004002 -0.544297
C -0.131856 -0.373476 -1.606657
H 1.584311 -1.168536 2.148156
C 0.203347 -1.084157 -0.471415
H 0.386661 -2.198904 1.894989
H 0.142242 -0.894008 2.786797
C 0.617112 -1.254102 2.010768
H -0.079480 1.287949 1.691489
C 0.215044 -0.480435 0.769016
H -0.673068 2.476379 -0.214767
C -0.096939 0.849419 0.847487
H -0.671322 1.435315 -2.299227
C -0.440871 1.557723 -0.285368