180
Zn2 H66 C99 N12 O1
C 0.945748 3.329492 -2.716860
C -0.945748 3.329492 2.716860
C 1.914139 2.867442 -1.845131
C -1.914139 2.867442 1.845131
C 2.391367 3.684365 -0.815591
C -2.391367 3.684365 0.815591
C 1.882788 4.957384 -0.637122
C -1.882788 4.957384 0.637122
C 0.903947 5.417052 -1.512187
C -0.903947 5.417052 1.512187
H -1.713842 -4.068069 -9.690705
H 1.713842 -4.068069 9.690705
C 0.461553 4.628709 -2.547290
C -0.461553 4.628709 2.547290
C -0.964907 2.164840 -3.766690
C 0.964907 2.164840 3.766690
C -1.870596 2.569729 -2.713902
C 1.870596 2.569729 2.713902
C -3.068892 2.052900 -3.010699
C 3.068892 2.052900 3.010699
C -2.943489 1.311001 -4.231583
C 2.943489 1.311001 4.231583
C -3.976323 0.592918 -4.862884
C 3.976323 0.592918 4.862884
C -5.310472 0.671514 -4.194794
C 5.310472 0.671514 4.194794
C -5.669265 -0.287120 -3.246268
C 5.669265 -0.287120 3.246268
C -6.878011 -0.185898 -2.569125
C 6.878011 -0.185898 2.569125
C 4.272414 -2.454467 11.807889
C -7.759316 0.845378 -2.850518
C 7.759316 0.845378 2.850518
C 3.709841 -1.756629 10.766593
C -7.405749 1.784959 -3.811439
C 7.405749 1.784959 3.811439
C -6.195261 1.675401 -4.479683
C 6.195261 1.675401 4.479683
C -3.847436 -0.178753 -6.008764
C 3.847436 -0.178753 6.008764
H -1.517029 -3.957320 -1.925261
H 1.517029 -3.957320 1.925261
H -2.677008 -5.239865 -11.439122
C -4.911621 -0.928988 -6.607170
H -2.133594 -4.439614 -4.102897
H 2.133594 -4.439614 4.102897
H -4.268930 -4.218116 -12.786437
C -4.420459 -1.535131 -7.713654
C 4.911621 -0.928988 6.607170
C 4.420459 -1.535131 7.713654
C -3.032316 -1.151677 -7.803166
C 3.032316 -1.151677 7.803166
C -2.138819 -1.589910 -8.808600
C 2.138819 -1.589910 8.808600
C -2.734484 -2.350863 -9.956997
C 2.734484 -2.350863 9.956997
C -0.752419 -1.348167 -8.811667
C 0.752419 -1.348167 8.811667
C 0.137595 -1.724476 -9.868268
C -0.137595 -1.724476 9.868268
C 1.381176 -1.274335 -9.549862
C -1.381176 -1.274335 9.549862
C 1.245322 -0.624130 -8.277491
C -1.245322 -0.624130 8.277491
C 2.286865 0.068944 -7.637451
C -2.286865 0.068944 7.637451
C 3.626239 0.033219 -8.316982
C -3.626239 0.033219 8.316982
C 4.568504 -0.959950 -8.014933
C -4.568504 -0.959950 8.014933
C 5.759833 -1.030210 -8.704788
C -5.759833 -1.030210 8.704788
C 6.043732 -0.121592 -9.690337
C -6.043732 -0.121592 9.690337
C 5.148493 0.887058 -9.980946
C -5.148493 0.887058 9.980946
C 3.939747 0.978754 -9.287118
C -3.939747 0.978754 9.287118
C -4.272414 -2.454467 -11.807889
C -0.472003 -1.280289 -3.412663
C 0.472003 -1.280289 3.412663
C -3.709841 -1.756629 -10.766593
C -0.708876 -2.137701 -2.351318
C 0.708876 -2.137701 2.351318
C -1.348083 -3.352368 -2.611426
C 1.348083 -3.352368 2.611426
C -1.482195 -2.708118 -4.907940
C 1.482195 -2.708118 4.907940
C 0.000000 -2.456849 -0.000000
C 2.933039 -4.361018 11.274168
C 3.889237 -3.754875 12.074071
N 1.015417 1.034724 -5.742286
N -1.015417 1.034724 5.742286
N -1.631982 1.396742 -4.670211
N 1.631982 1.396742 4.670211
C -2.358275 -3.658416 -10.223020
N -2.708358 -0.328800 -6.763689
N 2.708358 -0.328800 6.763689
C 2.358275 -3.658416 10.223020
N -0.041801 -0.690818 -7.825834
N 0.041801 -0.690818 7.825834
N -0.860405 -1.545848 -4.668887
N 0.860405 -1.545848 4.668887
N -0.322216 -1.692323 -1.086116
N 0.322216 -1.692323 1.086116
C -2.933039 -4.361018 -11.274168
C -3.889237 -3.754875 -12.074071
Zn -0.803451 0.076923 -6.080981
Zn 0.803451 0.076923 6.080981
H 4.093017 1.737325 -6.230077
H -4.093017 1.737325 6.230077
C -1.720809 -3.631027 -3.900782
C 1.720809 -3.631027 3.900782
H 3.152494 2.922221 -4.311247
H -3.152494 2.922221 4.311247
H 2.252030 2.006457 -1.947002
H -2.252030 2.006457 1.947002
H 3.054959 3.368790 -0.244980
H -3.054959 3.368790 0.244980
H 2.189329 5.496839 0.054271
H -2.189329 5.496839 -0.054271
H 0.546897 6.267319 -1.396173
H -0.546897 6.267319 1.396173
H -0.168946 4.964529 -3.141897
H 0.168946 4.964529 3.141897
H 4.916846 -2.046005 12.340204
H -1.659849 3.090131 -1.973246
H 1.659849 3.090131 1.973246
H 3.981548 -0.883736 10.595918
H -3.847436 2.157695 -2.512023
H 3.847436 2.157695 2.512023
H -5.094500 -0.995676 -3.065134
H 5.094500 -0.995676 3.065134
H -7.097466 -0.815857 -1.924115
H 7.097466 -0.815857 1.924115
H -8.572694 0.908494 -2.403486
H 8.572694 0.908494 2.403486
H -7.982255 2.487561 -4.006239
H 7.982255 2.487561 4.006239
H -5.981031 2.298215 -5.137087
H 5.981031 2.298215 5.137087
H -5.784217 -0.989721 -6.291074
H 5.784217 -0.989721 6.291074
H -4.885495 -2.087685 -8.299527
H 4.885495 -2.087685 8.299527
H -0.094052 -2.192480 -10.637050
H 0.094052 -2.192480 10.637050
H 2.157978 -1.369603 -10.050285
H -2.157978 -1.369603 10.050285
H 4.387366 -1.576810 -7.343387
O 0.000000 -3.672706 -0.000000
H -4.387366 -1.576810 7.343387
H 6.372915 -1.698277 -8.499502
H -6.372915 -1.698277 8.499502
H 6.841435 -0.184707 -10.162635
H -6.841435 -0.184707 10.162635
H 5.352273 1.508682 -10.641687
H -5.352273 1.508682 10.641687
H 3.347566 1.669447 -9.471429
H -3.347566 1.669447 9.471429
H -0.024384 -0.483610 -3.244714
H 0.024384 -0.483610 3.244714
H -1.762610 -2.902226 -5.773336
H 1.762610 -2.902226 5.773336
H -4.916846 -2.046005 -12.340204
H -0.280415 -0.839674 -0.977425
H 0.280415 -0.839674 0.977425
H -3.981548 -0.883736 -10.595918
H 2.677008 -5.239865 11.439122
H 4.268930 -4.218116 12.786437
C 2.168428 0.871577 -6.488234
C -2.168428 0.871577 6.488234
C 3.216938 1.677783 -5.922245
C -3.216938 1.677783 5.922245
C 2.701392 2.326796 -4.864067
C -2.701392 2.326796 4.864067
C 1.318474 1.933815 -4.743092
C -1.318474 1.933815 4.743092
C 0.407560 2.449453 -3.793275
C -0.407560 2.449453 3.793275