183
Ni1 H72 C90 N8 O12
O -1.198051 0.104369 -3.493163
H 3.232975 3.863389 7.890363
O -2.971082 0.675952 -4.719172
H -0.571045 -4.937909 2.274011
H -3.745387 -0.905300 3.442788
H 3.443310 -0.109859 -3.591681
C 1.059999 -4.349045 1.202794
C 1.287001 -3.096522 0.533654
C 2.375543 -2.852745 -0.283110
C 2.425378 -1.732664 -1.103832
H 4.932156 1.325365 5.628743
C 3.388107 -1.565001 -2.156384
H 4.445942 -0.297177 2.007396
H 4.694097 2.672206 3.129822
H 3.730101 1.821361 2.245224
H 3.119700 3.780283 -6.695685
H 3.715502 4.525597 -4.595126
H 2.895275 2.893821 -1.647914
H 4.686719 6.452859 -0.328774
H 4.632144 6.888175 1.932821
H -6.305514 -0.880236 -4.006940
H -3.551844 -1.526614 -1.870372
H -4.572228 -2.253460 -2.806284
C 3.469210 -3.869802 -0.426338
C 3.385364 -4.824463 -1.424767
H -0.170919 -0.568919 3.872162
C 4.410112 -5.738626 -1.629519
H 1.132806 -2.430225 4.414367
C 5.539874 -5.668712 -0.845168
C 5.650159 -4.731595 0.163619
C 4.605989 -3.837087 0.391936
C 5.553868 -2.717797 2.429387
C 5.328037 -1.547721 3.324315
C 5.755851 -1.647975 4.647327
C 5.586297 -0.578153 5.495783
H -1.992260 -2.603032 4.776327
H 2.715189 5.178571 8.570550
H 1.693213 4.092919 8.080971
H -4.585247 -5.940454 2.888258
H -3.598663 -3.725620 0.609893
H -3.744505 -7.146148 -1.782652
H -3.387976 -6.809767 -4.038167
H -2.582228 -4.779612 -4.803794
H -2.305539 -3.480260 -1.032546
H -1.280834 -2.192780 -2.758421
H -1.257211 -2.717797 -4.233669
Ni 0.022023 -0.420780 0.105907
H -4.007463 -1.754825 -7.613155
H -2.538419 -1.582018 -8.140991
H -3.330318 -3.699237 -8.695521
H -2.118518 -3.837746 -7.710290
H 0.040230 3.789517 -2.660462
H -3.583075 -4.011873 -7.181514
H -1.373188 4.358066 -0.742676
H -3.594510 1.519278 3.068442
C -0.655205 -2.948515 1.540749
C -0.146656 -4.265939 1.791754
C -3.161844 -4.185999 5.212838
C -3.932898 -5.177992 4.646151
H 0.949001 0.830688 -5.086406
C 1.561828 -1.650613 4.052439
H 1.768006 1.936126 -6.959431
H 3.374957 5.571674 3.339094
C -2.124042 -1.087605 2.078388
H 2.219826 3.333095 0.229591
C -1.797867 -2.434050 2.140255
C 3.026370 -0.456001 -2.836448
H 1.238176 3.914835 3.337274
H 1.407423 2.735525 2.320705
H -1.068613 4.302662 2.655943
H -2.098545 6.332818 3.098325
H -4.203060 6.762857 2.273896
H -5.298968 5.193081 0.979631
H -4.490098 2.078593 0.388719
H -6.838129 2.925481 -2.855440
H -7.536771 1.078686 -4.054278
H -3.785377 0.775284 -1.371556
H 0.549032 -0.327517 5.246714
H 3.309487 5.633674 6.371349
H 1.766898 5.857927 6.558030
N 4.650121 -2.857494 1.418374
C 5.022676 0.606434 5.044773
C 4.743541 -0.359440 2.886944
C 4.593771 0.731224 3.728548
C 3.993781 2.001160 3.160456
O 6.495908 -3.472345 2.598544
C 3.158532 3.787406 -4.687182
C 3.460138 4.686532 -1.779220
C 3.443018 4.855250 -0.293855
H -3.202239 2.668249 -4.709665
C 4.176716 5.917289 0.233969
H -1.784448 2.210507 -4.213387
C 4.147411 6.174521 1.587335
H -1.611957 3.139181 -6.339673
H -1.207314 1.624809 -6.396509
H -2.623445 2.075955 -6.893356
C 2.778414 2.618121 3.891834
C -4.003238 -1.471738 -2.728109
C -2.601130 -3.359163 3.008883
C -2.505246 -3.276980 4.392395
C 2.533294 4.520320 7.894225
C -4.056175 -5.273893 3.265486
C -3.384131 -4.366326 2.446324
C 1.882157 0.085506 -2.174520
C -3.304177 -5.582044 0.294654
C -3.094504 -5.334706 -1.170425
C 1.300337 1.302676 -2.505077
C 0.345628 1.916735 -1.713865
C -3.400080 -6.335273 -2.081296
C -3.192729 -6.131730 -3.432627
C -0.149433 3.242338 -1.933142
C -0.938618 3.548774 -0.887370
C -2.696026 -4.916670 -3.891517
C -0.982355 2.396506 -0.039704
C -2.550946 -4.138378 -1.643461
C -1.797377 2.292558 1.072419
C -2.367084 -3.903571 -2.997024
C -2.045905 1.069716 1.676475
C -1.829740 -2.570977 -3.463289
C -3.076971 0.862215 2.661236
C -2.928369 -1.538091 -3.848992
C -3.147290 -0.469852 2.880589
C 3.244458 3.583731 4.986126
C -3.552943 -1.903888 -5.175949
C -3.094300 -2.063504 -7.507531
C -3.025132 -3.535664 -7.800009
N 0.225556 -2.236707 0.749245
N 1.504387 -0.703603 -1.109448
N -3.450931 -4.456555 1.038993
C 1.821596 2.019892 -3.715035
C 1.497959 1.574682 -4.982212
C 1.988641 2.235571 -6.107049
C 2.801572 3.333095 -5.945309
C 2.673662 3.129552 -3.560900
N 3.002264 3.505506 -2.242881
O -3.316104 -6.706479 0.771289
C 3.401122 5.376442 2.430214
C 2.706923 4.046485 0.574669
C 2.687808 4.284986 1.942560
O -4.685116 -2.279447 -5.347334
C 1.891246 3.381903 2.858991
O -2.643347 -1.786749 -6.159593
C -2.534002 3.527140 1.501271
C -1.910766 4.479163 2.301125
O 3.855761 5.561253 -2.513783
C -2.531815 5.695937 2.578146
C -3.788325 5.952642 2.080510
C -4.441686 5.022121 1.297524
C -3.799033 3.820121 0.988296
O 4.395163 3.775930 5.297206
C -4.914099 3.199862 -1.120430
C -5.270259 2.020947 -1.956011
C -6.370798 2.123444 -2.792699
C -6.768616 1.028558 -3.532899
H 1.636412 -5.077737 1.223905
C -6.030665 -0.149433 -3.503403
H 4.118287 -2.113631 -2.335524
C -4.527400 0.838998 -1.928524
C -4.882677 -0.240585 -2.723836
C 2.009115 1.511363 4.605207
C 0.692959 -0.440963 4.295075
H 2.631021 -4.853484 -1.967573
C 2.467455 5.187805 6.552896
H 4.335328 -6.390281 -2.288344
H 6.239261 -6.262324 -0.995817
H 6.418169 -4.697825 0.689080
H 4.021250 -2.271928 1.400465
H 6.151402 -2.432863 4.953424
H 5.853058 -0.649387 6.383337
C -2.240282 -0.163944 -3.994668
C -2.478664 2.041657 -4.866867
C -1.931236 2.238209 -6.248386
N -0.189673 1.381164 -0.556154
N -1.450899 -0.135846 1.332388
N -4.418797 2.892370 0.119936
H -3.082278 -4.125319 6.136078
H 1.691509 -1.766698 3.107916
H -4.373710 -5.787434 5.191898
H 2.411460 -1.525295 4.480050
O -5.070317 4.345666 -1.503246
O 2.083555 1.316131 5.787646
O 1.343391 0.760377 3.741551
O 2.199650 4.221007 5.512545