137
Co1 H56 C64 N4 F12
H -3.594413 -3.894818 -0.437377
H 0.210177 -6.234693 -0.222404
H 1.673749 -5.593709 -0.324515
H 0.964654 -6.321198 -2.452017
H 1.146267 -4.730083 -2.463893
H -0.318390 -5.368231 -2.360685
H 2.925664 -4.123133 1.843797
H 4.419260 -5.912783 1.915094
H 5.261763 -5.361140 -1.996001
H 3.787606 -3.575744 -2.073900
C 2.616476 -1.247640 -0.421260
C 3.975205 -0.723082 -0.454335
C 3.904044 0.533927 -0.980853
H -2.605153 4.211076 4.053567
C -3.036938 0.181102 2.649686
H -1.754433 2.858203 4.117959
C -2.277867 -0.607081 1.695629
C -2.149041 -1.998243 1.606108
C -1.191236 -2.611432 0.794543
C -1.046945 -4.021739 0.492258
H -2.032769 0.641703 5.122253
C 0.208352 -4.193188 0.006256
C 0.834038 -2.880305 -0.011520
C 2.186727 -2.559530 -0.190370
C 5.203267 -1.317694 0.182625
C 5.184776 -1.180847 1.691417
H -6.075824 -3.747335 3.084931
C -3.536007 -0.246882 4.009669
C -2.989637 -2.847972 2.505293
C -4.361894 -2.981842 2.304909
C -5.142440 -3.648919 3.231726
C -4.557601 -4.174469 4.378333
C -3.189597 -4.119305 4.550803
C -2.406625 -3.474208 3.604475
C -2.159377 -5.045611 0.510690
C -3.197098 -4.780709 -0.573697
C 0.726934 -5.473029 -0.586413
C 0.619988 -5.473170 -2.099894
C 3.188193 -3.669481 -0.129698
C 3.395470 -4.376833 1.057499
C 4.279138 -5.443248 1.100974
C 4.959589 -5.825570 -0.045422
C 4.778654 -5.115240 -1.215684
H 5.885116 1.069971 -0.863759
C 3.903575 -4.052654 -1.260988
H 5.593797 3.185785 0.151216
C 5.912579 -6.979766 -0.018497
N 1.731383 -0.263332 -0.822412
H 3.909505 5.746885 -3.210507
N -1.758041 0.223078 0.723849
N -0.085044 -1.922233 0.345824
C -2.287878 3.441328 3.538270
F 5.703351 -7.813329 1.019483
F 5.832098 -7.730795 -1.109588
F 7.183634 -6.600565 0.150675
H 5.035927 2.022938 -1.831913
H 4.848272 2.071154 1.025658
H 4.004903 3.025539 0.057892
C -5.435549 -4.806093 5.418158
H 3.512853 1.174911 -4.091592
H 4.895693 2.499422 -5.413787
H 2.519032 4.422374 -1.887188
H 1.135759 3.850877 -4.288539
H -0.403921 4.107554 -4.641965
H -4.248406 0.373681 4.306373
H 0.515487 2.571745 -6.176405
H -2.771159 -0.538161 5.911893
H -0.623647 1.844257 -5.319200
H 0.918953 1.593252 -4.975221
F -6.613561 -4.144405 5.526684
H -1.715871 -0.885597 4.760513
H -2.161108 4.653525 -3.558087
F -5.824839 -6.030486 5.124017
H -3.006371 4.435137 -2.216055
H -4.190136 3.571510 -4.057210
H -3.811110 2.377465 -3.060452
H -2.786529 -4.520203 5.312431
H -2.968204 2.598689 -4.402756
H -1.562673 4.958418 0.428037
H -2.851598 6.841662 0.906583
H -6.217982 4.718758 0.214327
H -4.932540 2.821332 -0.210830
H -4.050157 2.360447 3.748285
H -4.031571 3.256690 2.421991
H -1.734033 3.753028 2.791707
C 4.525288 4.246812 -4.438437
C 2.508041 0.780535 -1.282316
C 1.955756 1.813484 -2.050355
C 0.582783 2.087037 -2.066319
C -0.151491 3.000013 -2.923825
C -1.352810 3.213296 -2.329692
C -1.371752 2.407812 -1.120082
C -2.261541 2.471201 -0.039930
C -2.311138 1.468742 0.938311
C -3.041298 1.467041 2.193495
C 5.407641 5.099803 -5.287243
C 5.019876 1.540924 -0.968255
C 4.851078 2.546219 0.168269
C 2.865928 2.662929 -2.868885
C -2.413769 -0.258369 5.043513
C 3.586418 2.105046 -3.913609
C 4.409502 2.889117 -4.697560
F 5.804303 4.511714 -6.385454
C 3.824237 4.817742 -3.390872
F 6.554774 5.470354 -4.630320
C 2.999203 4.031118 -2.608254
F 4.821547 6.263075 -5.641656
C 0.240056 3.430692 -4.316154
C 0.265021 2.255224 -5.282779
C -2.509270 3.969005 -2.934615
C -3.453107 3.048229 -3.679414
C -3.122827 3.681697 0.117958
C -2.510827 4.898290 0.413188
C -3.275111 6.020154 0.684256
C -4.651678 5.946128 0.632279
C -5.271302 4.760450 0.281331
C -4.505408 3.635041 0.027756
C -3.484827 2.662079 2.994452
Co -0.087602 -0.083049 -0.204525
H 6.007778 -0.864326 -0.176195
H 5.262907 -2.276759 -0.056577
H 5.997386 -1.579051 2.065911
H 4.399604 -1.642866 2.050832
H 5.145018 -0.231850 1.933001
F -4.853286 -4.778298 6.687563
C -5.461018 7.147548 1.020319
N -0.235527 1.631824 -1.056706
F -5.055194 8.255514 0.440210
F -6.786459 7.020344 0.722447
F -5.393441 7.383379 2.368340
H -3.928962 -1.153619 3.944258
H -4.764083 -2.612850 1.526943
H -1.461855 -3.459460 3.706423
H -2.602014 -5.029303 1.395551
H -1.773474 -5.948236 0.379085
H -3.899211 -5.463244 -0.527418
H -2.765874 -4.813751 -1.453843