79
Ni1 H21 C44 Br6 N5 O2
Ni -0.037805 -0.336132 0.297208
H -3.901348 -0.959150 -3.098731
H -1.248406 -7.814219 1.909798
H -4.316247 -6.552956 -0.274187
C 1.564032 4.246795 -0.000966
H -3.292557 -4.491551 -0.526045
H -4.628680 0.151279 -6.897035
C -0.890445 3.242669 -1.502229
H -2.515294 1.039048 -7.017640
C -0.001040 2.416670 -0.695819
H -0.223297 -5.761434 1.710864
H -3.284931 -8.197770 0.930262
H -5.349405 -0.793950 -4.893557
C 1.453390 5.082850 1.083025
C 2.177869 -1.915872 5.277210
H -1.098483 0.949984 -5.217748
C 1.645896 1.942619 1.004167
C 1.379743 0.266201 5.822897
C 2.550138 -2.157207 6.569233
C 1.700844 -0.011047 7.190872
H -1.599931 -4.079270 3.174824
C 2.293156 -1.181810 7.505753
C 2.772669 1.301931 2.855562
H 2.336873 -2.568051 4.632499
C 1.053513 2.827514 0.081464
C 2.141107 4.700735 -1.185260
C 2.797044 2.192573 1.845932
C -0.920520 -3.556377 -2.095550
N -0.869088 -2.435892 5.362213
C -3.621292 -0.545432 -3.883462
C -1.061206 -3.546321 0.443197
C -1.493797 -0.075691 -2.751038
C 1.118067 -0.533940 3.478995
O -0.788349 -3.519027 5.755919
O -1.175830 -1.550996 5.723374
C -1.660360 -7.137619 1.424386
C 1.561407 -0.707759 4.894088
C -3.487709 -6.393502 0.117362
C -1.666925 -4.912451 0.549834
C 2.509682 6.800926 -0.199988
C -1.605451 2.442527 -2.288843
C 1.644107 0.431401 2.613184
C 2.618905 5.973491 -1.275985
C -1.190822 1.080707 -2.036353
C -2.340755 -0.015357 -3.966449
C -2.874916 -5.158095 -0.028670
C -0.809504 -2.856792 1.629842
C 1.918404 6.382899 0.959298
C -4.061670 0.118239 -6.159351
C -0.870633 -2.945856 -0.796644
C -2.802452 0.639696 -6.228767
C -0.574918 -2.422963 3.781186
Br -3.016880 3.044716 -3.372557
C -1.083706 -2.569488 -2.999932
Br 4.111163 1.149804 4.150227
Br 4.216014 3.383878 1.535582
C -1.043308 -5.918014 1.301695
C -2.875453 -7.367462 0.836292
Br -1.196388 5.077103 -1.295393
C -4.483877 -0.460678 -4.964895
C -1.079139 -1.319716 -2.286413
C -1.949809 0.582235 -5.148890
N -0.281318 1.090763 -0.970995
C 0.137292 -1.431765 3.012500
C -1.119415 -3.316478 2.946318
Br -0.686765 -5.374004 -2.505673
Br -1.113329 -2.836106 -4.847887
N -0.104348 -1.652989 1.680030
N -0.812035 -1.573980 -0.953568
N 1.027441 0.799149 1.432653
H 1.051673 1.100818 5.574030
H 2.962062 -2.954475 6.809059
H 1.503462 0.608092 7.854622
H 2.538968 -1.335518 8.388172
H 1.075305 4.784054 1.879181
H 2.199234 4.130437 -1.919297
H 2.841008 7.667148 -0.256230
H 3.015464 6.273724 -2.062250
H 1.829019 6.974745 1.670024