198
Fe2 H100 C86 S2 N8
H 4.626481 -1.317650 -3.872835
H -10.073156 1.548068 -0.763510
C 6.727922 -1.728818 1.071687
H 5.953309 -1.046268 -3.019898
C -6.189061 1.636309 0.190610
H 6.202997 -3.080774 -4.126422
C -4.843796 1.563941 0.513545
H -9.653623 3.855661 -0.510289
H 6.091218 -3.391412 -2.559713
C -4.325404 1.480308 1.851666
H 4.828263 -3.625243 -3.514173
C -2.972590 1.352298 1.752933
H 1.125046 -1.771658 -2.561921
C -2.654383 1.350762 0.330553
H 2.332838 -2.241028 -3.497355
H 1.171500 -0.445475 -4.470284
C 1.368347 -1.336083 0.238022
C -1.474754 -2.589557 1.103937
H 1.522805 0.472784 -3.208323
C 1.306651 3.626609 -0.000592
H 2.689949 -0.029016 -4.180686
H 0.628574 -0.146785 -1.297726
C -1.067705 -3.595033 4.022594
H -0.467439 -1.167451 -0.722882
C -1.334087 -5.033183 3.651836
H -1.531515 -0.059738 -4.392703
C 9.466502 -2.012317 3.567635
C 2.938766 -3.664500 7.581983
C 9.687011 -3.471631 3.951465
H -0.857939 -0.343067 -6.557743
C 9.222912 -1.845221 0.354102
C 2.052665 -2.662608 8.296376
H -2.335741 -1.249378 -8.114685
C 5.999763 -2.659194 7.570465
H -4.449377 -1.920150 -7.474101
C 6.067991 -1.307409 8.236014
H -5.114243 -1.684612 -5.218396
C -1.081496 1.935511 -1.468658
C 0.212235 2.430313 -1.904028
C 0.028888 2.945083 -3.149472
C -1.354991 2.780548 -3.488231
C -5.155325 1.628458 3.094710
C -1.909385 3.075824 -4.721135
C -5.609263 3.058756 3.346158
C -3.200357 2.825266 -5.128727
C -2.010567 1.505227 2.917895
C -3.717879 3.073093 -6.447074
C -1.833462 0.267626 3.769270
C -5.017126 2.667899 -6.440727
C -9.408290 3.241213 0.212470
C -0.268995 0.555222 0.471162
C -5.304121 2.223107 -5.093197
C 3.378042 0.879002 4.552387
C -6.563593 1.946605 -4.593791
C 2.129604 0.464250 5.010678
C -6.894719 1.828495 -3.253425
C 1.730394 0.611034 6.292123
C 2.605752 1.153797 7.210296
C 3.851287 1.551481 6.835305
C -6.727922 1.728818 -1.071687
C 4.244691 1.409817 5.485485
S 3.805415 0.781885 2.806168
C 6.189061 -1.636309 -0.190610
N 2.029729 -2.197164 2.437395
C 4.843796 -1.563941 -0.513545
C -8.247388 1.836517 -2.727569
C 4.325404 -1.480308 -1.851666
N 4.177769 -2.296670 4.312347
C -8.138222 1.778827 -1.378309
C 2.972590 -1.352298 -1.752933
N 5.987859 -1.775243 2.227475
C 2.654383 -1.350762 -0.330553
N 3.817318 -1.524002 0.394600
C -1.368347 1.336083 -0.238022
C 1.474754 2.589557 -1.103937
C -1.306651 -3.626609 0.000592
C 1.067705 3.595033 -4.022594
C 1.334087 5.033183 -3.651836
C -2.938766 3.664500 -7.581983
C -2.052665 2.662608 -8.296376
C -5.999763 2.659194 -7.570465
C 9.408290 -3.241213 -0.212470
C -6.067991 1.307409 -8.236014
C 5.155325 -1.628458 -3.094710
C -9.466502 2.012317 -3.567635
C 5.609263 -3.058756 -3.346158
C -9.687011 3.471631 -3.951465
C 2.010567 -1.505227 -2.917895
C -9.222912 1.845221 -0.354102
C 1.833462 -0.267626 -3.769270
C 0.268995 -0.555222 -0.471162
C -3.378042 -0.879002 -4.552387
C -2.129604 -0.464250 -5.010678
C -1.730394 -0.611034 -6.292123
C -2.605752 -1.153797 -7.210296
C -3.851287 -1.551481 -6.835305
C -4.244691 -1.409817 -5.485485
S -3.805415 -0.781885 -2.806168
N -2.029729 2.197164 -2.437395
N -4.177769 2.296670 -4.312347
H 7.262718 -1.827983 5.224530
N -5.987859 1.775243 -2.227475
N -3.817318 1.524002 -0.394600
Fe 3.960308 -1.466995 2.446057
H 1.338442 -3.495526 5.353133
H -6.802538 1.619753 0.916266
H -2.210897 -2.865717 1.704529
H -1.720232 -1.718748 0.700629
H 2.136862 3.691808 0.516315
H 0.573411 3.357276 0.591357
H -1.101820 -4.497418 0.400877
H -0.766483 -3.555264 4.964521
H -1.911853 -3.082481 3.954313
H -1.975726 -5.419090 4.284864
H -1.705715 -5.074316 2.746927
H -0.496472 -5.540273 3.685357
H 2.374936 -4.400130 7.234022
H 3.572566 -4.053650 8.234986
H 1.586678 -3.108083 9.035402
H 2.602849 -1.933804 8.649923
H 1.395057 -2.300766 7.665381
H 10.256067 -1.682905 3.069034
H 5.737010 -3.340208 8.238047
H 9.377805 -1.467848 4.389114
H 6.896897 -2.899853 7.225574
H 10.456398 -3.536490 4.553516
H 6.744471 -1.326184 8.942740
H 8.888591 -3.812991 4.404017
H 6.306066 -0.628102 7.571260
H 9.856857 -3.999032 3.144359
H 5.194085 -1.092352 8.625081
H 10.073156 -1.548068 0.763510
H 9.653623 -3.855661 0.510289
Fe -3.960308 1.466995 -2.446057
H -1.338442 3.495526 -5.353133
H 6.802538 -1.619753 -0.916266
H 2.210897 2.865717 -1.704529
H -9.007629 1.222069 0.385498
H -4.626481 1.317650 3.872835
H 1.720232 1.718748 -0.700629
H -5.953309 1.046268 3.019898
H -2.136862 -3.691808 -0.516315
H -7.262718 1.827983 -5.224530
H -10.118158 3.229266 0.887558
H -6.202997 3.080774 4.126422
H -0.573411 -3.357276 -0.591357
H -6.091218 3.391412 2.559713
H 1.101820 4.497418 -0.400877
H -8.570675 3.539903 0.623740
H 0.766483 3.555264 -4.964521
H -4.828263 3.625243 3.514173
H -1.125046 1.771658 2.561921
H 1.911853 3.082481 -3.954313
H -2.332838 2.241028 3.497355
H 1.975726 5.419090 -4.284864
H -1.171500 0.445475 4.470284
H 1.705715 5.074316 -2.746927
H -1.522805 -0.472784 3.208323
H 0.496472 5.540273 -3.685357
H -2.374936 4.400130 -7.234022
H -2.689949 0.029016 4.180686
H -3.572566 4.053650 -8.234986
H -0.628574 0.146785 1.297726
H -1.586678 3.108083 -9.035402
H 0.467439 1.167451 0.722882
H -2.602849 1.933804 -8.649923
H 1.531515 0.059738 4.392703
H -1.395057 2.300766 -7.665381
H 0.857939 0.343067 6.557743
H -5.737010 3.340208 -8.238047
H 2.335741 1.249378 8.114685
H -6.896897 2.899853 -7.225574
H 4.449377 1.920150 7.474101
H -6.744471 1.326184 -8.942740
H 5.114243 1.684612 5.218396
H -6.306066 0.628102 -7.571260
C 1.081496 -1.935511 1.468658
H -5.194085 1.092352 -8.625081
C -0.212235 -2.430313 1.904028
C -0.028888 -2.945083 3.149472
H 9.007629 -1.222069 -0.385498
C 1.354991 -2.780548 3.488231
C 1.909385 -3.075824 4.721135
H 10.118158 -3.229266 -0.887558
C 3.200357 -2.825266 5.128727
C 8.247388 -1.836517 2.727569
C 3.717879 -3.073093 6.447074
H -10.256067 1.682905 -3.069034
H 8.570675 -3.539903 -0.623740
C 8.138222 -1.778827 1.378309
C 5.017126 -2.667899 6.440727
H -9.377805 1.467848 -4.389114
C 5.304121 -2.223107 5.093197
H -10.456398 3.536490 -4.553516
C 6.563593 -1.946605 4.593791
H -8.888591 3.812991 -4.404017
C 6.894719 -1.828495 3.253425
H -9.856857 3.999032 -3.144359