110
Ni1 H40 C61 N6 O2
H -1.929881 2.241921 4.237009
H -3.450609 3.436981 5.510045
H -5.369266 4.200586 4.570732
C -3.626513 3.269193 4.612883
C -4.767791 3.714344 4.056236
H 5.569053 -1.393480 -5.993381
H 7.079768 -2.859055 -5.147968
H 7.001251 -3.435468 -2.911670
H 5.368556 -2.555439 -1.535031
Ni 0.472645 0.392718 -0.533681
H -4.064904 -3.683155 1.520683
H -4.698295 -5.674921 2.647987
H -3.505530 -6.149749 4.647391
H -2.079461 -4.823427 5.594893
H -1.228777 -3.019994 4.259972
H -2.766557 -0.642430 5.019822
H -5.146338 -0.337673 1.860553
H 3.926453 -0.494046 -4.650838
H 3.121214 -3.634074 -2.218828
H 1.245557 -4.594003 -0.957617
H 0.369255 -4.760649 2.166185
H -0.461377 -6.887102 2.399373
H -2.114069 -7.630162 1.025908
H -2.820035 -6.315254 -0.738830
H -2.034150 -4.156842 -0.934801
H 0.251217 -0.900390 -3.344633
H -1.207474 -1.204005 -5.071365
H -3.325407 -0.254350 -4.951190
H -3.898457 0.868801 -3.023978
C -1.020203 -1.751884 1.132108
C -2.104338 -1.932227 2.105014
H -6.968137 -0.108249 3.303824
C -2.559754 -3.172943 2.797218
C -3.625600 -3.946822 2.296234
C -4.028357 -5.112204 2.963439
C -3.294319 -5.359891 4.200895
C -2.412458 -4.641942 4.745706
C 5.529285 -1.629753 -5.095334
C -1.955368 -3.517650 3.960342
C 6.425395 -2.494944 -4.595754
C -2.594198 -0.700642 2.387740
C 6.375858 -2.841933 -3.256677
C -3.751311 -0.478067 3.293420
C 5.401097 -2.310035 -2.431902
C -3.613114 -0.520299 4.653045
C -5.931953 -0.229239 4.980649
C -6.111612 -0.209835 3.652296
C -5.013641 -0.342238 2.781418
C -1.796156 0.268418 1.626912
O 6.352588 0.659922 -2.368494
C 3.286099 0.557195 -1.950463
C 3.383148 -0.842177 -2.078625
C 4.472195 -1.414025 -2.938077
C 4.545785 -1.086440 -4.287659
C 2.478775 -1.745035 -1.494181
C 2.505736 -3.164953 -1.700811
C 1.476134 -3.694569 -1.008242
H -5.854454 3.753152 2.392579
C 0.801322 -2.601095 -0.358877
H -4.317983 2.611739 1.091131
C -0.313964 -2.778014 0.487140
H -1.810776 4.469960 1.598053
C -0.793559 -4.192225 0.639429
H -0.031248 5.450434 0.252576
C -0.307339 -5.051710 1.597505
H 3.082659 5.284929 0.435959
C -0.795823 -6.332375 1.733444
H 3.871982 7.379422 0.018764
C -1.753393 -6.782092 0.903650
H 3.471730 8.400987 -1.960912
C -2.200809 -5.986527 -0.127816
H 2.228642 7.355453 -3.498899
C -1.721910 -4.696730 -0.244559
H 1.395177 5.248404 -3.110404
H 4.110552 3.597920 -2.384733
C -0.594437 -0.518016 -3.282245
C -1.464715 -0.709774 -4.325623
C -2.718669 -0.163037 -4.252289
C -3.043157 0.517246 -3.126207
C -2.111783 0.686175 -2.140280
N -0.848741 -0.415289 0.888982
N 1.413937 -1.419733 -0.677634
N -0.882022 0.175963 -2.197489
H -2.347971 1.181548 -1.389520
H -4.578068 -0.402733 6.416926
H -6.661342 -0.134501 5.547751
C -1.914270 1.658659 1.655743
C -2.960399 2.324103 2.515965
C -2.712987 2.559234 3.848640
C -5.051937 3.464375 2.761594
C -4.131648 2.772678 1.987491
C -1.080102 2.574072 0.966906
C -1.181818 4.005405 1.095535
C -0.204073 4.543010 0.357023
C 0.532230 3.464375 -0.243828
C 1.676450 3.620748 -1.021832
C 2.154008 5.024687 -1.291580
C 2.893989 5.688989 -0.380642
C 3.369969 6.942261 -0.631084
N 5.585171 1.434942 -2.906406
C 3.131261 7.551776 -1.792047
C 2.409202 6.934271 -2.688540
C 1.908442 5.665020 -2.456228
C 2.474614 2.578638 -1.518340
O 5.921253 2.168871 -3.833003
C 3.720287 2.782951 -2.169900
C 4.221781 1.560497 -2.408595
C -4.698452 -0.385612 5.496328
N -0.028041 2.263608 0.134704
N 2.215893 1.226063 -1.407558