176
H62 Ru2 C102 N6 O4
H -0.863014 -3.420857 -4.897692
H -3.420857 -0.863014 4.897692
H -0.606558 -3.508133 -6.992915
H -3.508133 -0.606558 6.992915
C 4.133173 -0.002343 1.118336
C 3.569239 -1.143638 1.635511
C 0.832817 0.145354 -3.337326
C 4.039184 -1.922404 2.815731
C 0.145354 0.832817 3.337327
C 1.790162 1.138952 -3.023485
H -1.469914 -4.919310 1.525004
C 3.193283 -2.902575 3.005804
C 1.138952 1.790162 3.023485
H -4.919310 -1.469914 -1.525003
C 2.461512 1.313503 -1.838845
H -2.711911 -4.370146 -0.446450
C 2.105696 -2.795159 1.984715
H -2.177517 0.373613 8.310164
C 1.313503 2.461512 1.838845
H -4.370146 -2.711911 0.446450
C 3.475250 2.266820 -1.657612
C 1.044963 -3.654487 1.944932
C 2.266820 3.475250 1.657613
C -2.472911 -3.291958 -2.966021
C 4.254016 1.944572 -0.552537
C 1.944572 4.254016 0.552538
C -3.291958 -2.472911 2.966021
C -2.634035 -4.715220 -2.979282
C 3.643088 0.775080 0.017681
H -0.352788 1.408835 7.784148
C 0.775080 3.643088 -0.017681
C -4.715220 -2.634035 2.979282
C -3.694768 -5.319435 -3.708632
C -5.319435 -3.694768 3.708632
C -4.755501 0.816704 -2.890876
C -4.500388 -4.460107 -4.376097
C -4.460107 -4.500388 4.376097
C -4.567523 0.682434 -4.274430
C -4.366118 -3.238250 -4.429141
H -1.742482 4.801838 -3.328486
H -3.552442 3.259075 -3.664429
C -3.238250 -4.366118 4.429141
C -3.359093 -2.540046 -3.713052
C -5.574548 0.481029 -5.127548
C -2.540046 -3.359093 3.713052
C -6.917248 0.400467 -4.676677
C -7.132080 0.494456 -3.350587
C -6.044493 0.749569 -2.448846
N -0.007714 -2.678344 -0.132609
N -2.678344 -0.007714 0.132609
O -0.213147 -0.009056 -1.242104
O -0.009056 -0.213147 1.242104
H -0.473631 6.623882 -0.773552
H 0.373613 -2.177517 -8.310164
H -2.031163 -5.250957 -2.510730
C 2.078842 2.186258 -4.062256
C -2.043247 2.186258 1.564786
C 2.186258 2.078842 4.062256
C 0.977828 2.817327 -4.681098
H -3.829038 -6.241870 -3.721893
H -5.250957 -2.031163 2.510730
C 2.817327 0.977828 4.681098
H -6.241870 -3.829038 3.721893
H 1.408835 -0.352788 -7.784148
C 1.179233 3.716936 -5.684506
H -5.216047 -4.836063 -4.840228
H -4.836063 -5.216047 4.840229
C 3.716936 1.179233 5.684506
C 2.441371 3.998903 -6.130956
N -1.711600 2.410489 -1.162539
H -4.952878 -2.745479 -4.963997
C 3.998903 2.441371 6.130956
H -3.700139 0.748226 -4.610373
H -2.745479 -4.952878 4.963997
H -3.305385 -1.609555 -3.743994
C 3.555812 3.394688 -5.604940
C 0.816704 -4.755501 2.890876
H -1.609555 -3.305385 3.743994
C 3.394688 3.555812 5.604940
C 3.340980 2.427944 -4.619213
H 4.801838 -1.742482 3.328486
C 0.682434 -4.567523 4.274430
H -5.397311 0.391068 -6.038130
O -2.722653 2.791816 2.311817
C 2.427944 3.340980 4.619214
C -0.606558 -1.640437 -2.943920
C 5.381884 0.561591 1.754859
H 3.259075 -3.552442 3.664429
C 0.481029 -5.574548 5.127548
H -7.626193 0.278281 -5.273418
C -1.640437 -0.606558 2.943920
C 0.561591 5.381884 -1.754859
C -0.445434 -2.660889 -5.246896
C 6.563460 0.185635 1.423337
C 0.400467 -6.917248 4.676677
H -7.991408 0.409866 -3.014645
C -2.660889 -0.445434 5.246896
C 0.185635 6.563460 -1.423337
C -0.190321 -1.747853 -4.318633
C 0.494456 -7.132080 3.350587
C 7.771890 0.682434 1.944932
H -6.215016 0.851614 -1.542685
C -1.747853 -0.190321 4.318633
C 0.682434 7.771890 -1.944932
H 1.900263 0.439405 -5.870158
C 0.749569 -6.044493 2.448846
C 7.677901 1.662605 2.846673
H 0.439405 1.900263 5.870158
C 1.662605 7.677901 -2.846673
C -0.244029 -2.754878 -6.595088
C 6.469471 2.145977 3.213558
C -2.754878 -0.244029 6.595088
C 2.145977 6.469471 -3.213558
H 3.610863 3.014704 -2.205730
C 5.328176 1.649178 2.612397
H 3.014704 3.610863 2.205730
C 1.649178 5.328176 -2.612397
H 5.015327 2.398405 -0.247537
H 2.398405 5.015327 0.247537
Ru -1.150754 1.292826 0.316051
H 6.623882 -0.473631 0.773553
C 2.186258 -2.043247 -1.564786
H 0.111787 2.614579 -4.402619
C -1.949258 0.387040 7.408423
H 2.614579 0.111787 4.402619
N 2.410489 -1.711600 1.162539
H 0.446119 4.153314 -6.064652
H 4.153314 0.446119 6.064652
H 2.556843 4.616545 -6.820523
H 0.748226 -3.700139 4.610373
C -0.244029 1.273222 5.870158
H 4.616545 2.556843 6.820523
H 4.408427 3.622947 -5.883419
H 0.391068 -5.397311 6.038130
C -0.821390 1.044963 7.063639
H 3.622947 4.408427 5.883419
O 2.791816 -2.722653 -2.311817
H 4.059325 1.931145 -4.318633
H 0.278281 -7.626193 5.273418
C -0.552850 0.695861 4.605953
H 1.931145 4.059325 4.318633
H 0.409866 -7.991408 3.014645
H 0.851614 -6.215016 1.542685
H 8.600336 0.337360 1.679714
H 0.337360 8.600336 -1.679714
H 8.443240 2.026477 3.226819
H 2.026477 8.443240 -3.226819
N 2.520590 0.459546 -0.747031
H 6.409050 2.801215 3.863342
N 0.459546 2.520590 0.747031
H 2.801215 6.409050 -3.863342
C -0.002343 -3.533644 0.981307
H 4.505101 2.043932 2.789209
C -3.533644 -0.002343 -0.981307
H 2.043932 4.505101 -2.789209
C -1.197346 -4.298983 0.892901
C -4.298983 -1.197346 -0.892901
C -1.895550 -4.004932 -0.207754
C -4.004932 -1.895550 0.207754
C -0.002343 4.133173 -1.118336
C -1.143638 -3.009991 -0.972466
Ru 1.292826 -1.150754 -0.316051
C -3.009991 -1.143638 0.972466
C -1.143638 3.569239 -1.635511
C -1.371897 -2.593754 -2.241092
C -2.593754 -1.371897 2.241092
C -1.922404 4.039184 -2.815731
C -0.027854 -0.539423 -2.373701
C -0.539423 -0.027854 2.373701
C -2.902575 3.193283 -3.005804
C -2.795159 2.105696 -1.984715
C 0.387040 -1.949258 -7.408423
C -3.654487 1.044963 -1.944932
C 1.273222 -0.244029 -5.870158
C 1.044963 -0.821390 -7.063639
C 0.695861 -0.552850 -4.605953