81
Fe1 H28 C46 N6
C -3.872307 0.980188 -4.090010
C -4.687658 1.445257 -5.123820
C -4.898856 2.808000 -5.259276
H 4.077684 -0.350667 -3.283072
C -4.326702 3.701640 -4.369901
H 5.803104 0.100763 -4.802883
C -3.504951 3.231960 -3.342291
H 6.405977 2.300285 -5.253231
C 0.191647 -1.519968 -1.294641
H 5.285990 4.063745 -4.218325
H 0.899479 -2.602056 4.371041
H 3.578489 3.618077 -2.682039
C -0.264028 1.504039 1.228333
H -1.537613 -2.815285 4.021997
H 3.908725 0.417725 3.626545
H 5.701985 -2.114127 6.217109
H 5.431908 0.033529 5.353516
H -3.808308 -3.866061 1.970291
H -5.577248 -4.511510 3.373137
N 0.100768 1.176896 -1.585205
H -6.520598 -2.974726 4.853535
N -0.090206 -1.216645 1.627501
N -1.983048 -0.112850 -0.199642
N 0.315806 -2.320248 -2.114131
N -0.470105 2.376548 1.968054
Fe 0.001441 -0.029095 0.006440
H -0.952660 2.853527 -4.132732
H -5.012774 -0.901989 0.564887
H -4.882216 0.529141 -1.451039
C 3.442811 -2.783204 3.955538
C 4.346480 -3.003541 4.994669
C 1.245075 1.576460 -2.234459
C 2.878337 0.542972 -0.716686
H -5.660447 -0.827070 4.986190
C 2.755458 -0.510685 1.209949
H -3.882547 -0.179700 3.613519
H -3.730229 0.046975 -3.987978
H -5.094694 0.834577 -5.727121
H -5.440290 3.132069 -5.968587
H -4.494380 4.632355 -4.458592
H -3.111996 3.848595 -2.734663
C 4.233842 0.321483 -0.267667
C 4.151923 -0.309943 0.920799
C 2.554501 1.246820 -1.871505
C 2.281864 -1.192633 2.333405
C 3.665528 1.592212 -2.816172
C 4.326001 0.548543 -3.461740
C 5.351269 0.817288 -4.371210
C 5.704545 2.117792 -4.639261
C 5.045353 3.164726 -4.020723
C 4.027764 2.897518 -3.108405
C 3.264893 -1.496532 3.429093
C 4.923754 -0.688760 5.001532
C 4.014964 -0.463045 3.968628
C -0.941140 1.645807 -2.355539
C 5.085032 -1.958528 5.512261
C -4.179504 -3.241166 2.582376
C 0.937879 -1.545517 2.495963
C -5.238052 -3.625938 3.415564
C -1.243217 -1.701116 2.213143
C -5.792286 -2.719236 4.299865
C -2.875198 -0.765407 0.623735
C -2.761280 0.519344 -1.152212
C -0.436826 2.402865 -3.474431
C 0.914839 2.348117 -3.405747
C 0.404125 -2.267421 3.633232
C -0.923220 -2.375765 3.446366
C -4.223023 -0.555636 0.168788
C -4.151344 0.226779 -0.926299
H 2.944896 -3.510680 3.601582
H 4.455279 -3.877587 5.347776
C -2.546242 -1.491345 1.772083
C -2.292805 1.343061 -2.175597
N 1.982347 0.024116 0.198502
C -3.673909 -1.960641 2.645216
H 1.527952 2.744031 -4.012850
H 5.029993 0.571403 -0.721153
H 4.882794 -0.573501 1.468207
C -5.286691 -1.449468 4.371724
C -4.228143 -1.061814 3.552673
C -3.257914 1.871714 -3.199479