62
H36 C18 N2 O6
H -2.659124 -0.778064 -3.741978
C -3.449007 -0.834877 -1.379751
H 2.703187 -0.643651 -2.512421
C 1.900852 -0.496766 3.207361
H -4.297129 -0.577137 -1.773134
H 3.295168 -2.083393 -2.290504
H -1.354467 -2.320348 -2.494419
H -0.802718 4.371198 -0.801691
C 0.963070 -1.641355 3.065980
H -0.791224 -2.036279 -3.933419
C 1.307339 -2.094479 -2.637995
H -0.408064 3.525921 1.336194
H -1.431099 -2.313419 3.574898
H 1.147561 2.205349 2.792362
C 3.558207 -0.755892 -0.108103
N -2.389189 0.022732 -1.927536
H -1.095835 -2.910656 2.160342
C 2.540728 -1.504170 -2.096153
H -2.164849 3.294509 -2.292513
H -3.630432 0.171141 0.384084
C -0.295607 3.555159 -0.669532
O -0.248479 -1.170078 2.499386
H 3.484832 1.597026 1.347765
H -4.352687 -1.225645 0.404690
O -2.406814 -1.341766 0.688155
C 1.790694 2.421518 2.098104
H 3.383295 1.461228 2.905223
O -1.142389 2.444382 -0.828767
H -3.295168 -2.083393 2.290504
H 3.272179 -1.754982 1.634824
C 2.878866 1.397347 2.079129
H 1.452173 0.218255 3.684330
C -1.900852 -0.496766 -3.207361
H -2.703187 -0.643651 2.512421
C 3.449007 -0.834877 1.379751
H 4.297129 -0.577137 1.773134
H 2.659124 -0.778064 3.741978
C -0.963070 -1.641355 -3.065980
H 0.802718 4.371198 0.801691
H 1.354467 -2.320348 2.494419
H 0.408064 3.525921 -1.336194
C -1.307339 -2.094479 2.637995
H 0.791224 -2.036279 3.933419
C -3.558207 -0.755892 0.108103
H -1.147561 2.205349 -2.792362
H 1.431099 -2.313419 -3.574898
H 1.095835 -2.910656 -2.160342
C -2.540728 -1.504170 2.096153
N 2.389189 0.022732 1.927536
H 2.164849 3.294509 2.292513
H -3.272179 -1.754982 -1.634824
C -2.878866 1.397347 -2.079129
O 0.248479 -1.170078 -2.499386
H -3.484832 1.597026 -1.347765
C 0.295607 3.555159 0.669532
H 3.630432 0.171141 -0.384084
H -3.383295 1.461228 -2.905223
C -1.790694 2.421518 -2.098104
O 2.406814 -1.341766 -0.688155
H 4.352687 -1.225645 -0.404690
H -1.452173 0.218255 -3.684330
O 1.142389 2.444382 0.828767