103
H41 Ru1 C55 N3 O3
H -2.481236 2.227796 6.646558
H -2.450386 -3.420601 -3.505174
H -1.824234 -4.929592 -5.000265
H -3.791793 -3.812166 -0.533295
H -5.627752 -4.908282 -1.234669
H -6.802047 -4.143798 -3.127140
H -6.005022 -2.300511 -4.303560
H -0.449679 2.602047 5.704492
H 0.068278 -5.949793 -5.182142
H 2.325979 -4.211722 -2.455086
H 1.929492 -5.638139 -4.121084
H 4.391680 -2.160666 1.378046
H 1.923139 -5.251901 0.597251
C -2.327712 3.030904 6.143227
H 3.366580 -6.988640 0.015602
H 5.351089 -6.633034 -0.924832
H 6.002235 -4.423487 -1.507372
H 4.575196 -2.693408 -1.030414
C -3.782012 -2.295183 -1.880868
C -4.255938 -3.480534 -1.268372
C -5.339140 -4.150457 -1.689488
C -6.041469 -3.694963 -2.834051
C -5.579516 -2.568213 -3.521346
C -4.507244 -1.850344 -3.053921
C 0.842573 -2.805284 -0.764782
C 0.032762 -5.307839 -4.509526
C 1.436092 -4.283642 -2.713027
C 1.203541 -5.137361 -3.825593
C 0.552864 -3.545795 -1.960078
C -0.834937 -3.242132 -2.296120
C -1.587262 -3.753564 -3.409333
C -1.179739 -4.693854 -4.371544
C -1.417374 -2.313829 -1.361672
C -1.481599 1.736341 4.216463
C -1.254484 2.811148 5.206081
H -4.926706 0.070191 -1.224180
H -4.449001 2.418251 -0.701375
C 2.106979 -2.645461 -0.085466
H -4.245050 -1.073872 -3.492014
C -0.378273 -2.138024 -0.402895
H -2.821440 4.481294 -2.104312
H -4.076599 6.431130 -2.170225
H -4.668243 7.453994 -0.196563
H -3.968728 6.581629 1.779095
H -2.770777 4.610484 1.853395
H -2.295452 1.926797 3.723410
C 3.077625 -3.769547 -0.244498
C 2.717739 -5.080092 0.145063
H 0.039211 0.010257 2.241945
C 3.614526 -6.114943 -0.182049
C 4.785592 -5.915165 -0.751897
C 5.181114 -4.587305 -1.101453
C 4.318422 -3.563109 -0.823483
H -0.203971 5.317699 0.657262
H 2.093609 4.788953 1.386588
H 4.795568 0.151434 2.131426
H 4.779658 3.443779 0.453893
C -2.616022 -1.578645 -1.349635
H 6.471666 4.455989 1.707647
C -2.817088 -0.250786 -0.898364
H 6.526838 4.398719 3.958250
C -4.102324 0.437783 -0.999441
H 5.063810 3.098829 5.076399
C -3.824965 1.728350 -0.695007
H 3.256014 2.162535 3.979158
C -2.466866 1.884177 -0.368219
C -1.766407 3.049550 -0.094470
H 0.436482 1.387395 3.760899
H -0.238526 2.434233 2.810893
H -1.093125 3.638230 4.726187
C -2.618828 4.346777 -0.145057
C -3.045343 4.899497 -1.304941
C -3.810311 6.072861 -1.354098
C -4.153973 6.678855 -0.187153
C -3.748756 6.150108 0.984370
Ru 0.055172 0.282089 0.160923
C -3.007854 4.976744 1.032527
C -0.462344 3.249328 0.229360
C 0.186757 4.473303 0.655774
C 1.463289 4.189618 1.057676
C 1.636518 2.735232 0.860692
C 2.737426 1.978739 1.349467
C 2.842777 0.577628 1.311450
N -1.842939 0.665530 -0.434880
C 4.038761 -0.170875 1.696774
C 3.798239 -1.450787 1.279215
C 2.512925 -1.546681 0.668800
C 3.830251 2.725909 2.100762
C 4.794363 3.393169 1.382263
C 5.802116 3.989840 2.154858
C 5.864914 3.935234 3.499551
C 4.972440 3.210705 4.157101
C 3.910299 2.622025 3.501910
C -0.374721 1.589837 3.268118
C 0.511680 0.140779 -1.454188
N 0.522168 2.247774 0.285957
N 1.911092 -0.270764 0.762933
O -0.555377 -1.597291 0.781450
H -1.608888 0.895941 4.684317
O -0.604330 0.519026 2.252437
O 0.844689 0.128793 -2.652573
H -2.088956 3.742115 6.740535
H -3.125923 3.266643 5.665628