15
H10 C4 O1
H -0.578421 1.767262 -0.275638
H -0.478255 -1.069589 0.392223
H 1.182565 0.250279 1.469866
C -0.097178 -0.311763 -0.079090
H -2.179317 0.487349 -1.646613
O 1.993803 -1.242730 0.214885
C -1.016744 0.984131 0.094963
H -1.206416 1.146618 1.031749
C -2.387950 0.653831 -0.722147
H -2.989944 1.395674 -0.658913
H 2.700991 -1.072253 -0.162298
H -2.803473 -0.129299 -0.346686
H 1.639199 0.833632 0.065920
C 1.241617 0.071811 0.516235
H -0.001902 -0.542174 -1.016030