86
H31 Pd1 C50 N3 O1
H -4.098698 2.685735 -0.997294
H -6.111270 2.521769 -0.170973
H -0.116928 -1.206246 -5.611956
H 1.975463 -3.989864 -3.143047
H -0.317295 2.919610 -4.133351
H 3.499826 -2.270122 -4.132512
H -2.744252 2.765812 -3.811197
H 4.123596 -3.018776 -6.244042
H 2.670783 -2.759480 -8.065054
H 0.580401 -1.817625 -7.745541
H -3.904446 4.570715 -4.679943
H 0.911295 0.999041 -5.073457
H -3.819375 6.662878 -3.593793
H -2.685719 6.850994 -1.566263
C -1.627533 2.220274 -0.154866
H -1.581194 4.999062 -0.653598
C -2.897596 2.166254 0.512587
C -4.140049 2.401272 -0.091773
C -5.412606 2.283318 0.425545
Pd 0.642368 -0.118347 -0.159613
C 2.123285 -3.945759 -1.089335
C 1.858147 -3.499490 -2.337409
C 1.364968 -2.140855 -2.231038
C 1.197072 -1.237133 -3.285274
C 1.621125 -1.675902 -4.646202
C 2.889899 -2.202756 -4.858545
C -0.091564 2.120750 -3.670517
C 3.268161 -2.626019 -6.116228
C -0.411446 1.823830 -2.289250
C 2.401377 -2.479847 -7.196505
C -1.328116 2.535496 -1.516601
C 1.164293 -1.935834 -7.006547
C 0.757689 -1.554262 -5.740232
C -2.739074 3.593271 -3.344642
C 0.699011 0.082607 -3.133843
C -2.044697 3.692414 -2.135980
C 0.578707 1.074033 -4.187187
C -3.414366 4.668078 -3.872052
C -3.380545 5.908250 -3.218105
C -0.646243 1.757481 0.766820
C -2.703272 6.018832 -2.023602
C -2.039932 4.912376 -1.480737
H -6.767003 1.873529 1.834136
H -3.306618 0.988872 3.637331
N 1.242115 -1.837327 -0.896102
H -5.487903 1.208765 3.529314
N 0.190060 0.593573 -1.979413
H -0.858781 3.133148 4.234656
O 0.641703 1.772861 0.543776
H -2.048140 2.027327 7.932365
H -1.500024 3.694956 6.393713
H -1.962086 -0.212278 7.294392
H -1.261666 -0.800778 5.138333
H 1.250008 -0.423274 4.884010
H 2.598101 -2.271393 3.958103
H 1.631466 -4.493204 3.244961
H 2.958481 -6.143038 4.179814
H 5.014739 -6.712472 3.197293
H 5.722054 -5.588856 1.272103
H 4.467439 -3.823356 0.419772
H 2.460558 -4.803342 -0.856564
C -5.830002 1.871876 1.678067
C -2.656914 1.663804 1.870888
C -3.636561 1.339430 2.817800
C -5.019801 1.452808 2.738757
C -1.252349 1.408957 2.005022
C -0.534609 0.795671 3.073901
C -0.961552 1.110894 4.470287
C -1.062500 2.446141 4.858087
C -1.454793 2.781573 6.138279
C -1.781877 1.793452 7.050806
C -1.721581 0.465196 6.674025
C -1.307706 0.114892 5.389292
C 0.530704 -0.100171 2.898453
C 1.271708 -0.696933 3.974623
C 2.005242 -1.711492 3.472540
C 1.721407 -1.788137 2.065148
C 2.110289 -2.831040 1.189450
C 2.917168 -3.955927 1.749629
C 2.478891 -4.687421 2.861229
C 3.256352 -5.682660 3.403772
C 4.480132 -6.022541 2.822310
C 4.906333 -5.342398 1.693451
C 4.148863 -4.304706 1.174859
C 1.795965 -2.867647 -0.167443
N 0.912856 -0.748411 1.719433