168
Ga2 P2 H66 C82 N10 O6
Ga -0.194463 0.457081 3.185266
H 7.464052 1.785117 2.103510
H 5.464165 0.813779 2.766295
P -0.529312 2.781956 0.944373
H -4.655000 0.690332 5.737980
H 4.127398 0.549017 0.423364
H -3.181399 2.257791 6.937845
H 2.830103 -1.263713 -0.606184
H -0.631543 2.943250 6.735780
H 1.991993 3.456532 -0.374417
H -1.817003 -3.844742 -6.466972
H 3.831362 2.930255 -1.918023
H 5.404958 0.805658 -1.911088
H -3.561641 -3.622211 -4.742098
H 7.532469 1.720144 -2.078766
H -3.497171 -4.193968 -1.800286
H -5.520740 -5.163681 -1.158859
H 8.829764 3.519880 -4.864605
H -7.975865 -5.144190 -1.226744
H 8.916601 3.518255 -3.266924
H -8.098226 -4.015294 -0.099242
H 9.415257 2.244796 -4.096325
H 6.787774 2.826299 -5.868302
H -8.738980 -3.773272 -1.544272
H 4.628686 1.976785 -5.699154
H -7.464052 -1.785117 -2.103510
H 1.845948 -4.403504 1.230862
H -5.464165 -0.813779 -2.766295
H 0.863109 -5.153936 0.208720
H -4.127398 -0.549017 -0.423364
H -2.830103 1.263713 0.606184
H 2.713004 -6.493991 0.590619
H -1.991993 -3.456532 0.374417
H 2.745897 -6.000201 -0.932359
H -3.831362 -2.930255 1.918023
H 3.694528 -5.306621 0.153436
H -5.404958 -0.805658 1.911088
H 1.098622 1.853338 -5.086005
H -7.532469 -1.720144 2.078766
H 0.282879 3.404554 -6.593682
H 2.007781 -3.531250 6.971117
H -8.829764 -3.519880 4.864605
H 3.418228 -1.996277 5.901859
H -8.916601 -3.518255 3.266924
H 2.503806 -0.488917 4.395032
H -9.415257 -2.244796 4.096325
H -6.787774 -2.826299 5.868302
C 2.952465 -0.237149 -4.516464
H -4.628686 -1.976785 5.699154
C 3.739262 -0.857636 -5.550399
H -1.845948 4.403504 -1.230862
C 2.937992 -1.714784 -6.197759
H -0.863109 5.153936 -0.208720
C 1.651222 -1.665405 -5.576725
H -2.713004 6.493991 -0.590619
C 0.542075 -2.416161 -5.949902
C 0.674962 2.478047 5.300986
H -2.745897 6.000201 0.932359
C 1.770952 3.301410 5.688585
H -3.694528 5.306621 -0.153436
H -1.098622 -1.853338 5.086005
C 2.726162 3.171953 4.758150
H -0.282879 -3.404554 6.593682
C 2.248557 2.220107 3.783363
C 2.965622 1.753930 2.679618
H -2.007781 3.531250 -6.971117
C 4.266864 2.393096 2.355079
H -3.418228 1.996277 -5.901859
C 4.301073 3.694006 1.866763
H -2.503806 0.488917 -4.395032
C -2.952465 0.237149 4.516464
C 5.508899 4.268687 1.473217
C -3.739262 0.857636 5.550399
C 6.678570 3.557239 1.534878
C -2.937992 1.714784 6.197759
C 7.990338 4.177725 1.059442
C -1.651222 1.665405 5.576725
C 6.654887 2.278907 2.032620
C -0.542075 2.416161 5.949902
C 5.462849 1.703089 2.431620
C 2.527489 0.736462 1.827677
C -0.674962 -2.478047 -5.300986
C 3.276131 0.237312 0.709285
C -1.770952 -3.301410 -5.688585
C 2.565776 -0.741985 0.142187
C -2.726162 -3.171953 -4.758150
C 1.320715 -0.865595 0.872046
C -2.248557 -2.220107 -3.783363
C 0.276432 -1.759128 0.563024
C -2.965622 -1.753930 -2.679618
C 0.922843 1.837257 -1.282066
C -4.266864 -2.393096 -2.355079
C 1.995940 2.764088 -1.025722
C -4.301073 -3.694006 -1.866763
C 2.998515 2.477722 -1.866122
C -5.508899 -4.268687 -1.473217
C 2.590248 1.368156 -2.672626
C -6.678570 -3.557239 -1.534878
C 3.384019 0.766837 -3.654218
C -7.990338 -4.177725 -1.059442
C 4.782624 1.288240 -3.796979
C -6.654887 -2.278907 -2.032620
C -5.462849 -1.703089 -2.431620
C 5.673363 1.224405 -2.720402
C -2.527489 -0.736462 -1.827677
C 6.944344 1.767574 -2.822998
C -3.276131 -0.237312 -0.709285
C 7.374583 2.377178 -3.986696
C -2.565776 0.741985 -0.142187
C 8.753452 2.965990 -4.059608
C -1.320715 0.865595 -0.872046
C 6.504895 2.428181 -5.053605
C -0.276432 1.759128 -0.563024
C 5.218126 1.906778 -4.957262
C -0.922843 -1.837257 1.282066
C 1.752532 -4.727392 0.300548
C -1.995940 -2.764088 1.025722
C 2.816946 -5.715947 0.002208
C -2.998515 -2.477722 1.866122
C 0.161833 1.891022 -5.244109
C -2.590248 -1.368156 2.672626
C 0.313140 -2.818828 6.143117
C -3.384019 -0.766837 3.654218
C 1.651222 -2.881526 6.374763
C 2.482754 -1.993028 5.734426
C -4.782624 -1.288240 3.796979
C -5.673363 -1.224405 2.720402
C 1.927523 -1.096409 4.843231
C -6.944344 -1.767574 2.822998
N 1.686220 -0.766349 -4.532384
N 0.993891 1.804284 4.143318
C -7.374583 -2.377178 3.986696
N 1.326636 0.047917 1.910994
C -8.753452 -2.965990 4.059608
C -6.504895 -2.428181 5.053605
N 1.304795 1.004473 -2.322268
N 0.626017 -1.041345 4.582613
C -5.218126 -1.906778 4.957262
C -1.752532 4.727392 -0.300548
O 0.985076 -1.859348 -2.048981
O 0.599835 3.684098 1.215927
C -2.816946 5.715947 -0.002208
C -0.161833 -1.891022 5.244109
O 1.859895 -3.614739 -0.618067
C -0.313140 2.818828 -6.143117
C -1.651222 2.881526 -6.374763
C -2.482754 1.993028 -5.734426
C -1.927523 1.096409 -4.843231
N -1.686220 0.766349 4.532384
N -0.993891 -1.804284 -4.143318
N -1.326636 -0.047917 -1.910994
N -1.304795 -1.004473 2.322268
N -0.626017 1.041345 -4.582613
O -0.985076 1.859348 2.048981
O -0.599835 -3.684098 -1.215927
O -1.859895 3.614739 0.618067
Ga 0.194463 -0.457081 -3.185266
P 0.529312 -2.781956 -0.944373
H 4.655000 -0.690332 -5.737980
H 3.181399 -2.257791 -6.937845
H 0.631543 -2.943250 -6.735780
H 1.817003 3.844742 6.466972
H 3.561641 3.622211 4.742098
H 3.497171 4.193968 1.800286
H 5.520740 5.163681 1.158859
H 7.975865 5.144190 1.226744
H 8.098226 4.015294 0.099242
H 8.738980 3.773272 1.544272