15
H10 C4 O1
H 0.759831 1.603018 -0.250673
C 0.790683 -0.767312 0.657808
C 0.212270 -1.847512 1.515396
C -0.939530 1.715954 -1.384253
C 0.215274 0.985191 -0.800333
O -0.268092 -0.084381 0.008784
H -0.613453 2.390913 -2.014024
H -1.444366 2.153083 -0.667673
H 1.309454 -0.134870 1.216266
H -1.521668 1.083512 -1.853967
H -0.191234 -2.535758 0.945810
H -0.473440 -1.466187 2.101371
H 0.921504 -2.248768 2.058760
H 0.786127 0.626453 -1.525282
H 1.401794 -1.160595 -0.014410