89
Ni1 H16 C48 I8 N4 F12
C -0.709026 3.407533 -2.196909
C 0.030838 2.693925 -1.167297
C 0.785642 3.236930 -0.127106
C 1.406290 2.417853 0.822939
C 2.426786 2.785818 1.801270
C 2.562108 1.727218 2.645836
C 1.561582 0.744065 2.265044
C 0.968868 -0.205150 3.092125
C -1.324767 -4.670979 0.132462
C -0.622009 -5.505458 1.009966
C -1.050218 -6.806844 1.224081
C -2.193690 -7.267616 0.569747
C -2.875453 -6.455718 -0.330504
C -2.437599 -5.158248 -0.560907
C -0.807400 0.019884 -4.893855
C -1.955761 -0.628851 -5.349853
C -2.310364 -0.567502 -6.691912
C -1.501997 0.138666 -7.578567
C -0.336212 0.765211 -7.143183
C 0.007223 0.703862 -5.793961
C 1.355175 -0.267935 4.524441
C 1.022471 0.787270 5.371497
C 1.421185 0.769127 6.710380
C 2.176108 -0.301221 7.175943
C 2.492486 -1.372873 6.343342
C 2.073533 -1.358907 5.021179
C -2.736524 -8.621213 0.880703
C -1.848872 0.203931 -9.033008
H 2.078076 5.167993 -1.494504
H 2.245506 7.457492 -1.018249
H -0.272265 6.982363 2.136329
H -0.327396 4.678505 1.733121
I -1.503786 -1.726741 5.336442
I -3.071964 -4.035428 2.917252
I 0.377432 -5.435886 -2.636270
I 0.673937 -2.927879 -5.327822
I 4.104466 1.471249 4.007692
N -0.167003 -1.307478 1.254830
N -0.396667 -1.371829 -1.443817
N 0.028850 1.344634 -1.471352
N 0.995862 1.128998 1.062061
F -3.163349 -9.255721 -0.220198
F -1.849395 -9.425149 1.467138
F -3.820776 -8.559864 1.676101
F -3.121009 -0.016665 -9.279443
F -1.484382 1.316048 -9.618097
F -1.171870 -0.725444 -9.725296
I -2.332619 2.916740 -4.728966
C 0.869897 4.703567 0.076849
C 1.620429 5.532173 -0.745335
C 1.704696 6.893602 -0.478044
C 0.987170 7.422249 0.592474
C 0.219562 6.610352 1.412916
C 0.175737 5.247617 1.163170
C 1.093173 8.884187 0.909807
I 3.565527 4.512601 1.970947
F 2.168940 9.170962 1.636595
F 1.139936 9.642176 -0.162731
C 2.645613 -0.335158 8.593990
I -1.453561 5.346167 -2.172961
F 2.512785 0.837002 9.227796
F 3.927674 -0.675842 8.693131
F 1.968740 -1.220022 9.342911
F 0.057857 9.326423 1.648640
Ni 0.121478 -0.051386 -0.153645
H 0.148996 -5.179133 1.459968
H -0.569600 -7.379872 1.810180
H -3.640311 -6.788570 -0.786276
H -2.891091 -4.604800 -1.185220
H -2.498360 -1.114424 -4.739392
H -3.094984 -1.002168 -7.001393
H 0.218115 1.229898 -7.758632
H 0.799456 1.129390 -5.487248
H 0.521744 1.522286 5.037959
H 1.179525 1.477906 7.294988
H 2.992023 -2.107758 6.679585
H 2.275914 -2.092094 4.452803
C -0.034494 -1.048897 2.603459
C -0.936691 -1.897343 3.351935
C -1.510135 -2.755579 2.456746
C -0.943973 -2.445440 1.152102
C -0.913544 -3.247417 0.001901
C -0.459392 -2.727646 -1.206896
C -0.130970 -3.436686 -2.427533
C -0.012729 -2.504570 -3.415034
C -0.259982 -1.210624 -2.808923
C -0.496681 0.008397 -3.441377
C -0.533311 1.209013 -2.722428
C -1.039615 2.497346 -3.157950