173
Mn2 H88 C74 N8 O1
H 5.121380 -2.753575 0.611761
H 6.078101 -1.640118 -0.020145
H 7.089409 -2.564760 1.880859
H 6.781994 -1.018138 2.148655
H 5.831020 -2.142701 2.777014
H 1.091950 -5.980101 2.535276
H 2.351775 -5.183188 1.949059
H -3.865471 1.819650 -3.664847
C -5.360886 -2.509503 -1.163695
C -5.490172 -3.708760 -2.104567
C -5.866540 0.038952 -2.941137
C -6.584798 1.048838 -2.050644
H -1.123160 -5.813499 2.702450
C -2.943227 4.357276 -4.217646
C -3.960281 4.964540 -3.262256
H -2.250826 -4.244663 0.523882
H -5.128170 -2.834099 -0.257742
H -6.235725 -2.048293 -1.106149
H -6.138041 -4.344624 -1.735079
H -5.797587 -3.403323 -2.983693
H -4.618206 -4.147479 -2.197927
H -5.709959 0.450737 -3.825681
H -6.458385 -0.743244 -3.075115
C -2.341326 -0.538602 2.760334
H -7.445272 1.286523 -2.453987
C -3.527890 0.031177 3.383739
H -6.737069 0.653436 -1.165387
C -3.174506 1.254036 3.839337
H -6.033176 1.852970 -1.959308
H -2.536693 5.085049 -4.750460
H -3.418714 3.757786 -4.845099
C -1.947721 2.190617 -3.191176
H -4.646937 5.437690 -3.776248
H -4.378308 4.252039 -2.735843
C -1.841418 3.578967 -3.550742
H -3.509215 5.593185 -2.662620
C -0.594522 3.989085 -3.190720
C 0.110808 2.823427 -2.716685
C 1.492738 2.731796 -2.508431
C 2.165028 1.524486 -2.497351
C 0.640883 5.940273 4.557176
C 3.582870 1.343446 -2.794607
C 3.822769 0.010630 -2.769663
C -4.850922 -0.661054 3.546341
Mn -0.351750 -0.057122 -1.932151
C 2.567253 -0.645782 -2.435249
C -5.767420 -0.423924 2.364609
Mn 0.419947 0.237764 1.855237
C 2.430784 -1.983874 -2.146217
C -4.010559 2.228102 4.639647
C 1.264332 -2.615018 -1.738585
C -4.723072 3.284914 3.795609
C 1.155156 -3.978933 -1.339658
C -0.124780 -4.187463 -0.940536
C 2.279949 -5.149312 4.020260
C -0.840166 -2.927397 -1.091757
C -2.189056 -2.679437 -0.864043
C -0.058701 5.384933 -3.293475
C -0.249757 6.201005 -2.032975
C -2.864219 -3.508838 0.278391
C 4.535281 2.415252 -3.238321
H -4.700088 -1.634565 3.652275
C -3.263571 -2.739692 1.614918
H 3.206503 -2.525886 -2.233667
C 4.393066 2.712081 -4.715279
H -5.290496 -0.332293 4.371819
C 5.085467 -0.738802 -3.077187
H -6.581925 -0.959827 2.470696
H -6.004445 0.525708 2.321508
C 5.058174 -1.369390 -4.463153
H -5.310608 -0.684934 1.540058
H 0.260206 6.751069 4.959339
C 2.298624 -4.963828 -1.388064
C 2.489681 -5.599693 -2.739161
H -4.688596 1.719689 5.150638
H 0.515906 5.185010 5.168735
C -0.690768 -5.531386 -0.623029
H -3.424460 2.685980 5.293768
H 1.597604 6.076331 4.395605
C -1.480853 -6.138650 -1.736282
H -5.227290 3.888291 4.382927
H -4.060838 3.799437 3.289070
H -5.339338 2.844252 3.173118
C -1.834236 1.513102 3.419364
C -1.197859 2.746512 3.479113
C -0.028534 3.079716 2.789242
C 0.458446 4.425027 2.569169
C 1.479809 4.345614 1.680031
C 1.689541 2.926998 1.406984
H 0.908075 5.343282 -3.504141
C 2.768365 2.376378 0.729115
C 3.147606 1.036898 0.845881
H -0.509767 5.845865 -4.043464
H 0.153904 7.087050 -2.152473
C 4.449090 0.472117 0.542852
H -1.206478 6.301244 -1.848273
C 4.401685 -0.851258 0.853057
H 0.181198 5.745904 -1.279249
C 3.067161 -1.121709 1.354299
H 4.362899 3.241320 -2.721352
C 2.600293 -2.359839 1.738335
C 1.303118 -2.661111 2.113399
H 5.463272 2.125087 -3.050613
C 0.781662 -3.965605 2.408723
H 5.058174 3.382932 -4.979749
H 2.855993 -5.935673 4.120137
C -0.571537 -3.842319 2.504646
H 4.536718 1.889067 -5.229936
H 2.814334 -4.336294 4.128017
C -0.894754 -2.452581 2.304632
H 3.493806 3.055281 -4.895659
H 1.577492 -5.169304 4.703903
C -2.153143 -1.873639 2.369991
H 5.854004 -0.118487 -3.018044
H 5.214754 -1.448526 -2.400396
H 5.862623 -1.915012 -4.589538
H 4.262343 -1.934449 -4.551231
H -1.029786 -4.952722 4.919873
H 5.035189 -0.662720 -5.142903
H 2.136298 -5.674664 -0.719720
C -0.060137 5.650940 3.241493
H 3.134677 -4.497343 -1.133977
H 3.223741 -6.246664 -2.695364
C 2.300061 5.470733 1.142470
H 1.665120 -6.060625 -3.002268
C 3.660442 5.639834 1.846405
H 2.702285 -4.908294 -3.400465
C 5.674440 1.248483 0.161036
H -2.362874 -4.847207 2.405943
H 0.051911 -6.143926 -0.388901
C 6.276340 2.042063 1.317664
H -2.423208 -5.680217 4.616548
H -1.275431 -5.449751 0.173928
C 5.512113 -1.856979 0.761914
H -1.671909 -7.076897 -1.528252
C 6.379769 -1.898352 2.001739
H -2.337017 -4.083614 4.607688
H -3.684470 -3.922566 -0.090021
H -2.322652 -5.649673 -1.844181
C 1.640699 -5.160141 2.635131
H -0.963706 -6.088392 -2.568193
H -4.017742 -2.137148 1.399447
C -1.525385 -4.936617 2.925634
H -1.588591 3.416252 4.028679
H -3.604025 -3.414430 2.256338
H 3.228051 -3.072896 1.746540
C -1.858657 -4.911071 4.395826
C -2.895822 -1.612074 -1.424415
N -2.270937 -0.528050 -2.034932
C -4.320847 -1.527384 -1.612818
N -0.748229 1.739403 -2.692505
C -4.557873 -0.438918 -2.396118
N 1.566000 0.292742 -2.318383
N 0.030363 -1.979154 -1.625554
C -3.290864 0.211107 -2.620041
N -1.318526 0.404088 2.786401
N 0.734257 2.167570 2.095349
C -3.119919 1.447017 -3.209853
N 2.331664 0.035620 1.355820
N 0.264516 -1.725641 2.111445
O -0.313251 0.412418 0.006193
H 0.057657 6.426195 2.635812
H -1.029786 5.543204 3.408634
H 2.459514 5.318292 0.176158
H 1.787224 6.312350 1.232968
H 4.156041 6.376214 1.429216
H 3.513918 5.840311 2.795582
H 4.176152 4.810156 1.764736
H 6.355349 0.620115 -0.184990
H 5.441724 1.875184 -0.569504
H 7.100901 2.480504 1.017912
H 5.635654 2.722077 1.615735
H 6.478889 1.436465 2.058631