91
H34 Pd1 C52 S1 N2 O1
C 3.908978 -6.779978 2.099820
C 4.564724 -5.602174 2.382484
C 4.041808 -4.373781 1.982033
H 2.241633 -7.519349 1.203618
H 4.309271 -8.236668 3.501777
H -3.343124 3.533592 -2.897801
H -2.281261 -0.490140 -5.100867
H 0.955667 -0.232009 -5.143963
H 0.834384 -0.896145 -7.375484
H -0.391534 -2.796457 -7.956517
H -1.543292 -3.975559 -6.318907
H -1.441478 -3.303640 -4.087713
H 1.536618 -3.413897 -3.422634
H 2.733947 -4.264821 -1.432158
H 1.321711 -5.476351 0.576379
H 2.361934 -3.089611 3.866774
H 1.666726 -1.147791 5.109685
H 2.575990 1.471137 5.486723
H 2.383518 2.053554 7.731838
H -1.619336 2.267582 7.341640
H -1.440162 1.679977 5.093193
H -0.255531 3.733352 3.731593
H -1.393180 4.602436 1.713157
H -0.754633 5.249710 -1.129021
H -5.373797 5.275653 -0.526788
H -4.160684 3.307889 -0.225717
H -4.157821 3.088672 -5.036460
H -3.638093 0.476230 -7.040148
Pd 0.337809 0.029105 0.168274
C -1.569320 1.782451 -1.403152
C -2.257816 1.798017 -2.732192
C -3.107573 2.728067 -3.342224
C -1.907100 0.626698 -3.407336
C -2.465449 0.332247 -4.665184
C -0.942436 -0.129535 -2.557244
C -0.173176 -1.229511 -2.962813
C -0.230783 -1.693887 -4.383334
C 0.440979 -0.996025 -5.377378
C 0.376417 -1.391653 -6.705916
C -0.354924 -2.511086 -7.050584
C -1.030707 -3.211543 -6.078245
C -0.971766 -2.810726 -4.750809
C 0.712649 -1.926076 -2.130609
C 1.489179 -3.054588 -2.542852
C 2.145246 -3.518965 -1.452950
C 1.798919 -2.692686 -0.342046
C 2.244290 -2.971571 0.986375
C 2.829462 -4.307627 1.314219
C 2.154753 -5.499700 1.031545
C 2.700928 -6.715121 1.413797
C 2.137414 -2.083030 2.049628
C 2.119069 -2.269818 3.451516
C 1.721521 -1.164654 4.161042
C 1.397316 -0.041329 3.342432
C 0.726068 1.144258 3.609326
C 0.589284 1.533400 5.045663
C 1.715875 1.639766 5.853734
H -1.972544 7.210987 -1.472184
C 1.601717 1.991291 7.196067
H -4.273649 7.230444 -1.150366
C 0.366267 2.250719 7.761548
C -0.760411 2.115817 6.965354
C -0.654662 1.764291 5.621723
C 0.114371 1.962754 2.610972
C -0.359751 3.274164 2.906377
C -0.984059 3.750214 1.801917
C -0.913497 2.735850 0.795538
C -1.572981 2.802004 -0.447263
C -2.342174 4.079688 -0.665319
C -1.698216 5.245818 -1.017722
C -4.432910 5.273058 -0.657138
C -3.709248 4.104334 -0.479804
C -0.834319 0.572218 -1.340316
C -3.598976 2.453073 -4.606525
C -3.296700 1.283052 -5.247554
C -3.768036 1.289538 -6.566155
S 1.895211 -0.407642 1.728767
N 0.930187 -1.687402 -0.784250
N -0.216534 1.647549 1.284657
O -4.327419 2.185862 -7.216187
H 4.069803 -8.834650 2.037279
H 5.453682 -8.114736 2.390120
H -0.462637 2.096359 9.632841
H 1.081137 2.516633 9.665736
H -0.033234 3.591963 9.261221
C -2.420918 6.415840 -1.210868
C -3.782781 6.426217 -1.024662
H 5.386296 -5.626819 2.859413
H 4.520388 -3.574742 2.166648
C 4.486335 -8.109548 2.546560
C 0.225688 2.648942 9.206732