95
Re1 H36 C51 Se2 N2 O3
H 5.601215 -0.975473 0.407624
H 7.797958 -0.452158 0.674926
H 9.556386 0.887262 1.528433
H 2.202385 -5.242804 0.348639
H 4.296156 -1.877693 2.393525
C -0.465757 0.613018 -2.213036
C 0.374570 -1.851196 -2.217104
C 2.177579 -0.014959 -1.972730
C -3.776112 -0.142144 -0.119856
C -5.199952 -0.432286 -0.482823
C -5.820383 0.073806 -1.638403
C -7.123134 -0.253431 -1.979241
C -2.938090 -1.243092 0.027471
C 4.834310 0.719006 1.211223
C 5.835719 -0.151418 0.816172
C -0.901024 -2.851455 0.610383
C 7.135558 0.145348 1.000966
C 0.295901 -3.417165 0.978379
C 1.498816 -2.626232 1.164283
C 2.616812 -2.989239 1.973034
C 3.459918 -1.925388 1.947668
C 2.888882 -0.882733 1.136700
C 3.405867 0.420916 0.978496
H 3.725038 3.077233 -0.117281
H 1.796893 4.464347 -0.495260
H -0.194088 5.753423 1.614417
H -0.164862 8.029510 1.185004
H -0.925534 9.537185 -1.937785
H 0.244644 9.673644 -0.855337
H -1.283540 9.820702 -0.404905
H -1.389848 7.324691 -2.574868
H -1.546377 5.047280 -2.130467
H -3.621670 4.378232 -0.194100
H -5.080924 2.396262 -0.277790
Se -1.207028 -0.994815 0.791509
N 1.685880 -1.361003 0.667252
H 9.163964 1.680845 2.861659
H 9.234646 2.453230 1.462613
H 6.829271 2.959322 2.536577
H 4.575245 2.489001 2.169972
O 0.215262 -2.689824 -2.956976
O 3.155371 0.173169 -2.563938
C 2.536757 1.554984 0.637463
C 2.841115 2.799015 0.089555
C 1.715476 3.592598 -0.124952
C 0.492462 3.086507 0.210912
C -0.811456 3.674739 0.068024
C -0.846729 5.130745 -0.208378
C -0.448881 6.064762 0.753254
C -0.411390 7.417430 0.501973
C -0.736236 7.865229 -0.749660
H -7.797846 -2.174459 0.533773
C -0.668794 9.355681 -1.010373
H -5.564422 -1.706788 1.104157
C -1.151861 6.994804 -1.716928
H -3.934035 -2.954793 -0.544292
C -1.230655 5.638162 -1.458791
C -1.981952 2.936799 0.096962
H -2.118011 -4.389602 -0.054016
C -3.357192 3.470713 -0.109671
H -1.348411 -4.995057 2.297587
C -4.139707 2.379039 -0.151986
H -1.332752 -7.314864 2.602079
C -3.374817 1.195951 0.017101
H 1.164302 -9.543256 1.363326
H -0.436529 -9.519408 1.363043
H 0.366941 -9.381624 2.740966
H 2.128840 -7.569234 0.611109
H 2.744619 -3.807995 2.438392
H -9.500140 -0.938377 -2.330324
H -9.854793 -1.062913 -0.775456
H -9.389751 -2.355963 -1.596718
C 7.527784 1.292665 1.650246
C 9.003133 1.606653 1.897844
C 6.577076 2.163089 2.084951
C 5.234839 1.876922 1.864314
C -7.847557 -1.097359 -1.142893
C -7.282828 -1.606100 -0.026378
Se 0.683760 1.356787 0.904281
C -5.951290 -1.315958 0.330613
N -2.047851 1.564258 0.208983
C -3.115892 -2.614308 -0.201426
C -2.063669 -3.451611 0.089126
O -1.098231 1.279416 -2.898717
C 0.374479 -4.861248 1.225181
C -0.635180 -5.507773 1.932992
C -0.624085 -6.901511 2.123401
C 0.391861 -7.671247 1.625793
C 0.369522 -9.156400 1.787495
C 1.419714 -7.041945 0.959129
C 1.456820 -5.649531 0.773667
C -9.269997 -1.388825 -1.491806
Re 0.588507 -0.410691 -1.005685
H -5.330159 0.660713 -2.202099
H -7.515718 0.092354 -2.773331