62
H36 C18 N2 O6
C 0.341667 -3.389364 1.637157
H -0.009106 -4.256412 1.958643
H 2.276533 2.380820 -3.226648
H -0.605793 -2.192735 3.011956
H 0.686198 2.274340 -3.039703
H 1.276644 -3.531337 1.348131
H 0.857215 -0.068212 -3.682276
H 2.428826 0.203057 -3.862572
H 2.850752 -1.437237 -2.157639
H 2.165434 -2.071044 -3.462905
H 1.520063 -3.792465 -2.062890
N 0.490215 2.941106 -0.467095
H 1.928257 -3.097812 -0.675335
N -0.455997 -2.954065 0.479022
O 1.699818 0.828752 -2.121346
H 0.105738 -4.662049 -0.456074
O 0.923375 -1.892817 -1.911529
H 2.115502 1.440249 3.819862
H -0.778059 -3.698662 -1.377561
H -0.653229 4.533230 -0.925973
O -2.189887 1.713547 -0.617549
H -0.784300 3.331531 -1.975096
O -2.633034 -0.987487 0.144388
H 1.706060 -0.808500 4.203358
H -2.764106 3.620547 -0.663402
O 1.103130 1.587293 2.109571
H -1.923999 3.230122 0.647772
O 1.015749 -1.234418 2.377455
H -3.496858 1.321094 0.837463
C 1.632410 3.098543 -1.402775
H -4.180927 1.772365 -0.543439
C 1.556264 2.167860 -2.580608
H -3.464402 -0.296383 -1.522935
C 1.729777 -0.073790 -3.216906
H -4.506734 -0.522019 -0.323914
C 2.025625 -1.450166 -2.704303
H -3.726546 -2.661753 -0.022677
C 1.210484 -3.177418 -1.353213
H -2.549398 -2.552738 -1.108442
C -0.044058 -3.717422 -0.712606
H -2.078788 -4.137257 0.638284
C -0.724382 3.548293 -1.009916
H -2.070050 -2.927952 1.684297
H 1.231705 4.447032 0.647968
C -1.995152 3.095755 -0.331321
H -0.006609 3.704210 1.331151
C -3.448174 1.234896 -0.148376
H 2.064322 3.298573 2.448763
C -3.595474 -0.205115 -0.545438
H 2.576125 2.517722 1.142722
C -2.786575 -2.385413 -0.161300
H 2.764619 0.608694 2.611869
C -1.877812 -3.173869 0.744161
H 1.653631 4.031255 -1.730774
C 0.829753 3.560209 0.821129
H 0.768586 -2.811331 3.560524
C 1.774716 2.762879 1.668978
H 0.304218 -0.106241 3.865055
C 1.909533 0.866527 3.040815
C 1.188015 -0.354693 3.493946
H 2.476261 2.930965 -0.912888
C 0.327936 -2.413554 2.769921