17
H12 C4 N1
H 1.766567 0.947117 -0.284979
C -0.564114 1.098537 0.836147
H -0.923365 1.779927 0.264593
H 1.432552 -0.081648 -1.419539
N 0.000000 -0.000000 0.005683
H -1.272225 0.748193 1.393046
C -1.068847 -0.593804 -0.836993
H -0.120245 -1.469665 1.393046
H -0.697720 -1.301915 -1.375573
C 0.564114 -1.098537 0.836147
H 0.923365 -1.779927 0.264593
H -1.766567 -0.947117 -0.284979
C 1.068847 0.593804 -0.836993
H 1.272225 -0.748193 1.393046
H -1.432552 0.081648 -1.419539
H 0.120245 1.469665 1.393046
H 0.697720 1.301915 -1.375573