91
H35 Pd1 C52 S1 N2
H -7.455894 -1.429658 -2.793187
H -4.611618 -3.107090 -0.597786
Pd 0.151267 0.027328 -0.060689
H -6.561942 -3.010751 -1.560769
H -3.192037 -6.070931 -2.933505
H -4.085989 -7.346006 -1.188800
H -3.973446 -6.561127 1.012062
H -2.965671 -4.501172 1.469626
C -2.392723 -1.523164 -0.594919
C -1.804429 -2.755736 -0.191408
H 4.412311 2.276560 2.115892
C -0.530643 -2.897411 0.368648
H 1.295628 4.809709 -1.503968
C 0.055094 -4.149818 0.730568
H -0.951402 4.356349 -2.497043
C 1.238078 -3.872135 1.303563
C 1.441423 -2.449718 1.261173
C 2.630801 -1.854683 1.831096
C 3.428836 -2.642396 2.814576
C 2.771481 -3.294101 3.892680
C 3.463366 -4.019477 4.792964
H 4.859927 3.636640 0.103800
C 4.890620 -4.161152 4.657235
H 5.858749 5.642758 0.681311
H 2.378858 7.045340 2.057658
C 5.491704 -3.532115 3.665503
C 4.766567 -2.778404 2.704996
H 1.420961 5.073224 1.584224
H -4.918554 1.568185 -2.156367
C 5.592737 -4.999868 5.676679
H 4.353482 8.564096 2.008951
H -6.804934 0.681299 -2.876969
C 3.057955 -0.610777 1.515982
H 5.588901 7.702712 2.548665
H 5.555649 8.184407 1.021795
C -3.836603 -0.004408 -1.583387
C -3.727897 -1.338986 -1.113011
C -6.643792 -1.214312 -2.350526
C -4.791943 -2.308043 -1.081297
C -6.032477 -2.228705 -1.656990
C -2.479689 -4.060279 -0.461435
C -2.547471 -4.526674 -1.768410
C -1.732810 -0.282091 -0.646926
C -3.145996 -5.750746 -2.039896
C -3.676741 -6.509840 -1.002722
C -3.610238 -6.042596 0.304531
C -3.011712 -4.818524 0.576017
H -3.566755 4.166504 -1.520501
H -4.823915 5.297071 -3.056868
H -5.095042 4.523525 -5.257071
N 0.333894 -1.885852 0.641478
H -3.906943 2.554243 -5.893904
H -2.558981 1.452011 -4.378905
C 3.949349 0.281776 2.142066
C 3.880288 1.585186 1.740643
C 2.913439 1.806199 0.685863
C -2.539797 0.618962 -1.348623
C 2.311076 2.922598 0.202797
C 1.096120 2.939599 -0.575678
C 0.767442 4.030496 -1.370937
C -4.979941 0.624629 -2.077314
C -0.459024 3.775481 -1.927763
C -6.197455 0.074930 -2.469187
C -0.845253 2.511740 -1.505200
C -2.064046 1.899704 -1.780476
C 3.014472 4.172171 0.633619
C 4.330462 4.336514 0.468063
C 4.925151 5.557753 0.839843
C 4.302326 6.620315 1.396294
C 2.903208 6.365300 1.650673
C 2.327702 5.212066 1.333737
C 5.010837 7.875556 1.775433
S 2.377323 0.231906 0.149833
N 0.115202 1.987543 -0.629415
H -2.184263 -4.008143 -2.475940
H -0.319624 -5.014036 0.592636
C -2.952882 2.687417 -2.788105
H 1.837883 -4.506839 1.675920
C -3.630700 3.843485 -2.411915
H 1.829357 -3.214763 3.980571
C -4.382694 4.498024 -3.324456
H 3.010635 -4.438835 5.516528
C -4.541278 4.061665 -4.640408
H 6.436812 -3.583118 3.590452
C -3.831488 2.885762 -5.006670
H 5.225693 -2.370380 1.981731
C -3.043684 2.222723 -4.110320
H 5.154074 -4.895029 6.545544
H 5.558207 -5.940590 5.404320
H 6.527614 -4.713685 5.745452
H 4.561943 -0.007241 2.808352