115
Mn1 H52 C57 N5
C 2.878238 -1.035757 0.030728
C 2.305677 0.418483 1.982327
C 0.498080 1.476289 2.653329
C -0.402413 -1.299722 -2.760737
H -3.324719 3.260121 2.259394
H -4.379922 2.742399 0.080496
C 3.159890 -2.283151 -1.814402
C 3.831623 -1.799944 -0.748723
H -3.070835 -0.254556 -4.131214
C 2.645511 1.081556 3.225042
C 1.522870 1.723969 3.640023
C -1.667864 4.599150 5.371751
C -1.280427 -1.259131 -3.906391
C -2.186210 3.804094 6.389148
C 0.827335 -1.987345 -2.708492
C 3.196914 -0.356642 1.230360
C -2.697944 4.400082 7.684354
C -0.800429 2.023908 2.691955
C -2.211334 2.423502 6.183143
C -1.735302 1.850118 5.009509
C -1.741914 0.357231 4.860948
C 1.159235 -2.959106 -3.807598
C -4.293972 1.191420 -2.146436
C 1.731795 -2.515761 -5.020600
C -4.479095 2.365167 -2.881071
C 2.127166 -1.079022 -5.204568
C -3.319429 3.308733 -3.130902
C 1.971133 -3.435022 -6.032302
C -5.753802 2.669966 -3.383208
C 1.656423 -4.777939 -5.895873
C -6.830162 1.835292 -3.168537
C 1.881216 -5.757479 -7.030633
C -8.213299 2.195509 -3.678102
C 1.148656 -5.209374 -4.680890
C -6.622560 0.665191 -2.450491
C 0.910640 -4.314420 -3.621401
Mn -0.230778 -0.465776 0.300367
C -5.367688 0.321988 -1.947612
C 0.445187 -4.868602 -2.294007
C -5.198432 -0.992249 -1.216938
H 3.512946 -2.833443 -2.504468
C 4.626331 -0.441227 1.677034
H 4.750629 -1.934114 -0.548413
C 5.504345 0.624600 1.404672
C 4.999223 1.877098 0.731690
H 3.487823 1.070132 3.663297
C 6.834589 0.513520 1.741906
H 1.428986 2.241691 4.430864
C 7.347645 -0.650017 2.322533
C 8.816732 -0.740680 2.667937
C 6.472276 -1.691538 2.586229
H -1.640096 5.540043 5.498028
H -1.148196 -1.703205 -4.735362
C 5.115586 -1.603064 2.283164
H -3.020587 3.683049 8.268695
C 4.209804 -2.768789 2.578801
H 1.889150 -0.570536 -4.401100
C -1.239436 2.681390 3.985923
H -1.971995 4.883775 8.130037
H 3.093774 -1.022631 -5.351891
C -1.187866 4.068545 4.172615
H -3.431826 5.019890 7.491224
H 1.656423 -0.706651 -5.978325
C -0.643074 4.971277 3.113621
H -2.563068 1.860084 6.862315
H 2.362537 -3.134840 -6.844932
H -1.376956 0.114899 3.985180
H 2.243529 -5.281078 -7.808103
H 2.517247 -6.447775 -6.748367
H -2.660919 0.024966 4.935972
H 1.029648 -6.177977 -7.273283
H -3.628850 4.074379 -3.658294
H 0.955599 -6.131795 -4.562041
H -2.965050 3.624714 -2.274199
H 0.327502 -5.837690 -2.370763
H -2.614638 2.837193 -3.621153
H 1.114276 -4.673423 -1.605673
H -5.878099 3.469154 -3.881136
H -0.407703 -4.454667 -2.048881
H -8.845363 1.488199 -3.432976
H 4.036581 1.792026 0.563320
H -8.498918 3.041365 -3.279463
H 5.161867 2.647605 1.313554
H -8.186852 2.287873 -4.653654
H 5.469965 2.003490 -0.117585
H -7.355119 0.080870 -2.296483
H 7.417728 1.245137 1.573536
H -4.267526 -1.088258 -0.924768
H 9.264995 0.090592 2.405479
H -5.788182 -1.008048 -0.432040
H 8.918550 -0.876794 3.631109
H -5.431158 -1.732373 -1.813659
H 9.218714 -1.494172 2.187589
H 6.806821 -2.485865 2.984868
H 3.294765 -2.546630 2.308914
H 4.516580 -3.555338 2.081121
H 4.229638 -2.962266 3.539496
H -0.352166 4.434110 2.346055
N -1.495964 -2.831013 2.271774
H -1.339931 5.598377 2.831355
H 0.121221 5.469555 3.472644
N -1.577947 1.218643 0.490278
H -1.191833 -0.043092 5.564881
N 1.656423 -1.060063 -0.572182
N 1.001880 0.675886 1.670844
N -0.927371 -0.526542 -1.757453
C -1.728690 1.962899 1.646579
C -2.690010 1.451497 -0.278279
C -2.101582 -0.012223 -2.226411
C -2.976951 2.685036 1.587402
C -3.557445 2.394334 0.405350
C -2.329019 -0.468450 -3.578318
C -2.957116 0.877141 -1.524460
C -1.087370 -2.108146 1.568584
C 1.805844 -1.806993 -1.705704