91
Mn1 H36 C49 N5
H -4.404751 -1.515705 -2.162321
H -5.566637 -0.082361 -0.534929
H -7.702841 -0.984619 -0.515317
H -9.275838 -2.570540 0.163992
H -9.000125 -3.174980 1.618958
H -8.691959 -4.052297 0.318375
H -6.414057 -4.005351 1.821265
C 8.286271 4.044554 -1.319518
C 1.193662 -2.558803 0.094966
C -2.526644 -0.795658 1.587108
C -0.937053 -0.138990 2.957484
C 1.343566 0.873153 2.660655
C 2.604188 1.408786 0.926547
C 2.362525 1.243152 -1.549550
C 0.863260 0.382999 -2.905069
C -1.394804 -0.635159 -2.602565
C -2.750360 -0.969215 -0.904271
C -3.110081 -0.726119 2.910086
C -2.132281 -0.326778 3.749698
C 2.534703 1.514563 3.173085
C 3.297651 1.842604 2.109011
C 2.801032 1.522632 -2.895748
C 1.887179 0.985678 -3.724982
C -2.660865 -1.053132 -3.152410
C -3.495811 -1.246494 -2.112523
C -3.251819 -1.079100 0.410159
C 0.265257 0.422904 3.448954
C 3.058311 1.605376 -0.385741
C -0.290153 -0.251956 -3.385552
C 4.534855 3.600027 -0.880271
C 5.778282 4.167789 -1.108881
C 4.405357 2.250894 -0.577214
C 6.933041 3.419575 -1.049899
C 6.805072 2.083059 -0.745293
C 5.558096 1.510895 -0.505016
C -0.388167 -0.588359 -4.843024
C -0.715253 0.338693 -5.820952
C -0.865246 -0.060355 -7.144726
C -0.713900 -1.373397 -7.532430
C -0.898826 -1.798852 -8.974553
C -0.377447 -2.291793 -6.556190
C -0.220905 -1.901548 -5.236869
C -4.660516 -1.549741 0.546082
C -5.723989 -0.900995 -0.080133
C -7.003664 -1.427679 -0.049952
C -7.278829 -2.597828 0.654576
C -8.685423 -3.147105 0.691419
C -6.240611 -3.217672 1.318039
C -4.948003 -2.713874 1.265148
N 1.619981 -3.585764 0.150866
N -1.201651 -0.442531 1.650344
N 1.418553 0.809041 1.291296
N 1.172431 0.562130 -1.586764
N -1.473133 -0.601710 -1.239335
H -2.214568 -0.193859 4.687272
H 0.732114 2.931035 7.201997
H 1.027051 2.140275 9.362298
H 1.768763 0.724537 9.444165
H 0.191135 0.818430 9.697948
H 0.526232 -1.057974 7.733735
H 0.264768 -1.348457 5.449618
H 8.172644 4.998160 -1.515659
H 8.705680 3.600027 -2.085300
H 8.857260 3.940391 -0.529786
H 7.582973 1.538770 -0.698024
Mn 0.268489 -0.552122 0.057284
H -4.009996 -0.924469 3.142558
H 2.740961 1.675209 4.085874
H 4.140218 2.281116 2.135899
H 3.585524 1.995034 -3.148167
H 1.911560 1.001816 -4.674134
H -2.868020 -1.169472 -4.072774
H 3.758045 4.142849 -0.931054
H 5.834352 5.093521 -1.311071
H -4.249112 -3.166177 1.722546
C 0.372442 0.615386 4.924974
H 0.448274 2.652289 4.917453
C 0.484777 1.887937 5.481491
C 0.648031 2.055184 6.846701
C 0.691419 0.963672 7.703977
C 0.941506 1.180801 9.182152
C 0.530482 -0.299490 7.162471
C 0.373881 -0.472166 5.798513
H 5.505529 0.588098 -0.286236
H -0.838116 1.251221 -5.586162
H -1.078052 0.592499 -7.800887
H -0.750315 -2.764195 -9.052689
H -0.255241 -1.323516 -9.540370
H -1.809794 -1.584658 -9.263077
H -0.249990 -3.202854 -6.792342
H 0.006683 -2.554402 -4.584528