79
Mn1 H28 C45 N5
H 3.822391 -2.548169 2.334243
H 4.584798 -0.192804 2.383666
N -0.684861 -1.948792 0.059211
N 1.662694 -0.532861 1.084085
N -1.714659 0.580357 -1.013980
H 2.444299 4.486633 0.941443
N 0.631525 1.983353 0.029885
H 0.386074 5.170919 -0.271952
H -3.966229 2.617362 -2.067308
H -0.651952 -5.055829 0.815177
H -4.698469 0.251566 -2.159287
H -2.667668 -4.421612 -0.470718
H 1.472093 -3.824947 3.785132
H 2.307175 -5.053743 0.023125
H 3.198478 -7.010636 0.878838
H 3.231388 -7.404935 3.153365
H 2.388078 -5.800617 4.634861
H 3.391823 2.006093 3.860792
H 5.189513 3.151439 4.838823
H 6.806200 4.161179 3.499453
H 6.585431 4.083988 1.175108
H 4.761687 3.030437 0.197174
H -2.146599 5.081211 0.503779
H -3.026932 6.074261 -3.947310
H -2.051983 4.046436 -3.395894
H -4.823251 -2.942468 0.101643
H -6.726526 -4.002278 -0.774084
H -7.067964 -4.058606 -3.071247
H -5.551377 -3.025917 -4.500370
H -3.678269 -1.953590 -3.638061
N 1.664066 -1.027300 -3.293433
H -3.121547 7.115295 -0.060076
C 1.230755 -0.692458 -2.413448
H -3.579540 7.620165 -2.289591
C 2.009617 -1.805467 1.430770
C 2.691121 0.281190 1.462491
C 1.765537 2.462563 0.646393
C -0.078775 3.080716 -0.394138
C -2.101348 1.866107 -1.279709
C -2.777367 -0.240787 -1.342612
C -0.051350 -3.013191 0.631835
C -1.866867 -2.428836 -0.462323
C 3.338344 -1.792950 2.023083
C 3.755200 -0.511998 2.047858
C 1.776507 3.910413 0.589003
C 0.647980 4.282181 -0.065944
C -3.457500 1.860057 -1.805874
C -3.857901 0.568674 -1.850602
C -1.961482 -3.842889 -0.204914
C 1.217043 -2.960201 1.268006
C 2.740486 1.682309 1.300636
C -0.857637 -4.188579 0.485041
C -1.344426 3.037948 -1.019572
C 1.779249 -4.230721 1.815211
C -2.826732 -1.638359 -1.138259
C 1.821758 -4.473768 3.186017
C 2.312660 -5.199780 0.960919
C 2.843328 -6.359729 1.470783
C 2.868011 -6.593388 2.818547
C 2.363396 -5.648321 3.697576
C 3.888210 2.400810 1.925222
C 4.032190 2.440031 3.307086
C 5.112724 3.113887 3.893439
C 6.064361 3.718479 3.103601
C 5.928609 3.672999 1.726169
C 4.849446 3.035653 1.143630
C -1.980679 4.348106 -1.379243
C -2.319374 5.279404 -0.410041
C -2.906263 6.491509 -0.742498
C -3.175026 6.794014 -2.058037
C -2.847300 5.873982 -3.035152
C -2.264525 4.668136 -2.707917
C -4.051245 -2.335372 -1.671669
C -4.965860 -2.950813 -0.836076
C -6.099872 -3.589202 -1.357221
C -6.305557 -3.618410 -2.715003
C -5.406026 -3.009228 -3.561243
C -4.292583 -2.372924 -3.045062
Mn 0.264308 -0.088283 -0.508412