79
Mn1 H28 C45 N5
Mn -0.756583 0.211238 0.149182
N -3.556646 1.690291 1.191054
N 0.496586 1.980068 -0.043363
H 1.596339 4.678820 -1.382186
N 0.275637 -0.058511 2.051149
H 1.922146 4.612904 1.071206
N -0.760453 -1.963736 0.080555
N -0.586939 0.106786 -2.012868
H -0.869055 -4.947448 1.267416
H -1.328429 -4.856180 -1.176145
H -0.973912 -1.152209 -4.941708
H -0.229925 1.195414 -5.012531
H 2.706079 3.314866 -3.265764
H 3.269063 4.739665 -5.041133
H 1.588850 5.520516 -6.467560
H -0.619395 4.906991 -6.120286
H -1.189868 3.517685 -4.342258
H 1.027114 1.068652 4.974986
H 0.472869 -1.352492 4.971275
H -2.139825 -3.989132 3.508943
H 0.587712 -4.181809 -3.129435
H 0.466627 -5.708017 -4.874949
H -1.452011 -5.837314 -6.202393
H -3.233337 -4.382092 -5.807988
H -3.114748 -2.820390 -4.086651
H 3.140488 2.277957 3.986457
H 3.879482 3.842194 5.537628
H 2.682361 5.809532 5.855285
H 0.723777 6.225310 4.653024
H -0.005231 4.645862 3.083984
H 1.844751 -3.449128 3.753703
H 1.979568 -5.211112 5.302779
H 0.060929 -6.288585 5.989423
H -1.995022 -5.751116 5.068796
C -2.657870 1.096033 0.792605
C 0.695066 2.725932 -1.164387
C 0.964699 2.705904 1.019102
C 0.145814 -1.145871 2.866539
C -0.635622 -2.812278 1.154094
C -1.030086 -2.741038 -1.016401
C -0.899014 -0.985898 -2.791298
C -0.233670 1.119610 -2.859798
C 1.342934 3.975294 -0.795936
C 1.512703 3.939040 0.539858
C -0.880289 -4.168879 0.722320
C -1.127453 -4.117921 -0.612310
C -0.790412 -0.599275 -4.192279
C -0.387211 0.677213 -4.231610
C 0.697563 0.982455 2.834435
C 0.354280 2.344634 -2.482603
C 1.002148 2.279478 2.372520
C -0.243656 -2.445430 2.450018
C -1.108728 -2.292049 -2.355191
C 0.693818 3.270500 -3.594992
C 2.020762 3.642925 -3.837007
C 2.364045 4.487410 -4.898808
C 1.366652 4.950089 -5.742363
C 0.791185 0.539043 4.220900
C 0.057185 4.588819 -5.535199
C 0.475365 -0.776488 4.216672
C -0.279857 3.759545 -4.473824
C -1.252283 -3.333014 -3.428884
C -0.188731 -4.213246 -3.675482
C 1.486489 3.274302 3.374618
C -0.264877 -5.125168 -4.706511
C 2.641167 3.074780 4.115418
C -1.399583 -5.199957 -5.501309
C -2.455645 -4.337472 -5.264174
C 3.088059 4.005209 5.038076
C -2.385740 -3.409071 -4.239522
C 2.372783 5.169133 5.225817
C 1.214359 5.424685 4.512843
C 0.783696 4.476762 3.586212
C -0.163765 -3.544959 3.464321
C 1.055825 -3.911300 4.012352
C 1.136965 -4.955054 4.944932
C 0.003508 -5.601538 5.336659
C -1.214834 -5.277028 4.807879
C -1.294725 -4.228964 3.869485