154
Y1 H57 C88 N8
H 4.055810 0.027868 -3.768553
H 5.122988 -0.928106 -1.752264
H 2.049453 3.085966 4.629048
H 2.121451 3.975718 6.769656
H 0.511886 3.413680 8.305292
H -1.137680 1.909252 7.729374
H -1.291276 1.089118 5.546053
C 1.526264 -5.389941 -5.094158
C 2.777437 -5.105016 -5.591134
C 3.489422 -4.057520 -5.060615
C 6.052568 -0.208154 1.374371
H -4.550407 3.435754 -0.602918
C 7.326141 -0.690386 1.686592
C -4.422410 -0.622466 -4.364658
C 7.610935 -2.014826 1.549251
C 6.639756 -2.884202 1.100431
C -5.350390 -0.343994 -5.358429
C 5.377382 -2.408762 0.772681
C -5.769581 0.941052 -5.574096
C -5.270072 1.956456 -4.782008
H -1.313676 5.836726 -0.916628
H -2.705646 7.675660 -1.239237
H -5.017597 7.409074 -1.206396
H -5.943978 5.291668 -0.892616
H 4.718196 -3.011552 0.445483
C -1.986782 -0.944237 2.808696
C -1.665348 -1.233746 4.161471
C -0.493853 -1.906494 4.181403
C -0.066022 -2.102273 2.840645
C 0.983236 -2.900843 2.414624
C 1.336348 -3.089830 1.062051
C 2.182890 -4.168060 0.607503
C 2.204490 -4.108460 -0.736505
C 1.370107 -2.998138 -1.123720
C 1.061314 -2.715930 -2.459191
C 0.067255 -1.818877 -2.889193
C -1.710467 -0.543849 -2.914977
C -2.895082 0.061658 -2.504583
C -3.294434 0.210063 -1.157688
C -4.648325 0.524872 -0.778778
C -4.715204 0.425370 0.557136
C -3.404991 0.046376 1.019310
C -3.141797 -0.297129 2.346995
C 1.721780 -3.689224 3.447653
C 1.040834 -4.531432 4.323727
H 5.858972 0.715558 1.476785
C 1.729460 -5.253931 5.288423
H 7.994927 -0.090992 1.995314
C 3.102231 -5.145768 5.392200
H 8.478117 -2.340842 1.761711
C 3.795016 -4.332596 4.517314
H 6.834951 -3.809612 1.015306
C 3.108150 -3.607550 3.554067
H 0.102294 -2.055578 -5.014040
C 1.699220 -3.558478 -3.529874
H -1.862464 -0.556244 -5.055909
C 0.993475 -4.614974 -4.074299
C 2.047693 1.480507 -4.730831
C 2.955034 -3.291722 -4.023384
C 2.774238 2.591848 -5.029587
C -3.899701 0.392259 -3.567192
C 3.276627 2.807494 -6.317589
C 3.014232 1.926232 -7.306744
C 2.300648 0.810646 -7.031928
C 1.831858 0.576322 -5.740909
H 1.027075 -6.117194 -5.450291
H 3.143830 -5.628170 -6.293839
C -4.342092 1.684097 -3.778077
H 4.351804 -3.852062 -5.401726
C -4.217774 -0.074522 3.362063
C -4.835201 -1.152242 3.984301
H -4.140816 -1.519010 -4.226114
C -5.843180 -0.951878 4.917232
H -5.695983 -1.050362 -5.892139
C -6.244771 0.325018 5.230900
H -6.396768 1.133266 -6.262486
C -5.649584 1.396456 4.620890
H -5.561586 2.849944 -4.921490
C -4.640005 1.204921 3.690906
C 2.926234 -0.186420 1.745289
C 3.393424 -0.254000 3.107446
C 2.452644 0.309736 3.880869
C 1.396027 0.755800 3.012635
C 0.334609 1.553860 3.423432
C -0.620090 2.160046 2.589019
C -1.545671 3.172903 3.027084
C -2.158138 3.652588 1.928048
C -1.606310 2.939089 0.802815
C -1.854144 3.291763 -0.529451
C -1.151599 2.819719 -1.652004
C -1.306476 3.362910 -2.980097
H -0.204899 2.977294 -4.671436
C -0.355776 2.806135 -3.750490
C 0.389168 1.901781 -2.916933
C 1.552663 1.240749 -3.326184
C 2.386086 0.483781 -2.493419
C 3.683658 -0.006771 -2.895675
C 4.265886 -0.522284 -1.796157
C 3.345585 -0.343315 -0.700548
C 3.687658 -0.560150 0.634662
C 0.355089 2.014528 4.854203
C 1.367867 2.856736 5.249657
Y 0.019736 0.062167 -0.047478
C 1.422266 3.379720 6.528353
H -1.185678 -1.885778 1.359985
C 0.486286 3.045214 7.428647
H -2.184057 -0.996026 4.920702
H 2.942234 3.233692 -4.349354
C -0.497693 2.175838 7.080856
H -0.033703 -2.198210 4.960763
C -0.580891 1.672211 5.782285
H 3.804616 3.576688 -6.496174
H 2.638240 -4.799546 1.153616
H 3.329426 2.089240 -8.187114
H 2.679840 -4.689176 -1.318617
H 2.116651 0.185782 -7.722505
H 1.355068 -0.223436 -5.557373
H -5.358390 0.758008 -1.364925
H -5.481587 0.576322 1.097464
C -4.170575 4.296130 -0.732256
H 0.095894 -4.612766 4.261188
H 1.254270 -5.825138 5.880690
H 3.569421 -5.629868 6.062911
H 4.740596 -4.269770 4.574459
C -2.788685 4.448271 -0.751824
H 3.591820 -3.047210 2.957696
H 0.126294 -4.814828 -3.744718
C -2.256696 5.718205 -0.923041
C 5.069069 -1.074134 0.916307
C -3.083238 6.813925 -1.104279
C -4.449609 6.655332 -1.088699
C -4.999678 5.399830 -0.903567
H 3.463823 -2.580260 -3.654650
H -4.011219 2.391484 -3.237413
H -4.563207 -2.036900 3.769003
N -0.959123 -1.419847 2.013904
H -6.254371 -1.697300 5.339616
N 0.854758 -2.369199 -0.004210
C -0.323297 -1.663001 -4.261099
H -6.934357 0.464254 5.868149
C -1.397994 -0.859167 -4.284429
N -0.750808 -1.083983 -2.080095
H -5.931178 2.277718 4.835241
N -2.531410 -0.056523 -0.047004
H -4.232014 1.956796 3.276373
N 1.675541 0.389712 1.703199
H 4.214207 -0.629258 3.401783
N -0.695449 1.997718 1.229887
H 2.478244 0.398032 4.827137
N -0.135621 1.894309 -1.634926
H -1.697668 3.449338 3.922062
N 2.175210 0.228062 -1.159760
H -2.824044 4.328902 1.898339
H -1.958462 3.996094 -3.257580