101
Fe1 H12 C52 Br8 N8 F20
H -3.517551 3.246697 3.558334
Br 0.371565 -5.887886 0.666846
H -3.680730 3.396226 1.973278
Br 3.518063 -4.634517 1.111691
F 2.753968 -2.838041 4.024381
Br 3.612706 4.044004 2.193485
F 4.931503 -3.902629 5.157473
N -0.186610 1.509765 -1.173648
N 1.852592 0.696971 0.535284
N 0.566116 -1.777190 0.869459
N -1.703641 -0.702722 -0.387658
N -0.718255 0.852374 1.522526
N -2.162646 2.187182 2.508890
N 0.759824 -1.023941 -1.676123
N 0.688236 -2.281047 -3.483116
F -2.225496 -4.096215 3.031105
C -3.976556 -0.458136 -0.394513
F -2.511110 -4.489795 -1.656029
C -3.713365 -1.661305 0.154589
F 5.472202 -0.615408 0.875338
F 0.263341 5.191101 -0.106662
F 1.304103 7.674874 -0.160751
F 3.931799 8.025198 -0.771481
F 5.495152 5.890146 -1.353339
C -3.728104 1.778382 -2.355319
F 4.453022 3.408241 -1.315546
C -4.236589 2.982085 -1.901843
C -5.397786 3.525194 -2.415763
C -6.061027 2.849646 -3.425317
C -5.562017 1.671309 -3.917141
C -4.411347 1.141551 -3.378550
C -3.409117 -5.868928 2.082213
C -3.886018 -6.525785 0.961007
C -3.565979 -6.056372 -0.298762
Fe 0.121955 -0.067493 -0.057689
H -1.274114 2.619212 0.731162
H -2.496371 4.159889 2.730622
H -2.446892 0.945028 4.145100
H -0.811951 -0.550256 3.046127
F 7.398231 -3.398505 4.116756
H -0.930913 -1.287217 -2.757332
H 0.875628 -3.439358 -5.116532
H -0.143446 -2.221770 -5.316070
H -0.581396 -3.500772 -4.459021
H 2.715858 -2.787842 -3.412763
H 2.780076 -1.383343 -1.365729
Br -5.667399 0.349852 -0.356377
Br -5.038162 -2.772088 0.891583
C 0.728241 2.496652 -1.469862
C -1.278325 1.728717 -1.991761
C -2.722715 0.103130 -0.833864
C -2.274238 -1.835132 0.146374
C -0.159238 -2.941375 0.722791
C 1.855750 -2.138461 1.202676
C 2.651639 0.151192 1.512932
C 2.166315 2.042193 0.469586
C 0.275553 3.220797 -2.634649
C -0.953021 2.765803 -2.945101
C 3.953907 -2.549130 3.491172
C 0.735611 -4.063372 0.863506
C 5.067730 -3.102385 4.089991
C 1.966291 -3.575002 1.117786
F -3.616827 3.634136 -0.898599
C 6.309990 -2.842847 3.570241
C 3.356990 1.206970 2.185838
C 6.433164 -1.996142 2.486084
F -5.885531 4.667484 -1.935209
F 7.650473 -1.697352 2.023046
C 3.060111 2.363145 1.570886
F -7.206222 3.349765 -3.913107
C -2.530060 1.167985 -1.714297
F -6.216625 1.035012 -4.901320
C -1.542568 -2.962203 0.519844
F -3.954553 -0.017027 -3.859556
C 2.800079 -1.235417 1.684315
C 1.753632 2.858724 -0.585424
F -3.758634 -6.295885 3.300894
F -4.669274 -7.599719 1.096457
F -4.038143 -6.691868 -1.381554
C -2.293188 -4.242806 0.681083
C -2.622703 -4.750402 1.922755
C -2.787987 -4.929569 -0.417420
C 4.024442 -1.743279 2.368157
Br 4.342376 1.084143 3.784751
C 5.302496 -1.452767 1.902034
C 2.331599 4.227443 -0.695640
C 1.562030 5.345702 -0.414857
C 2.081042 6.614023 -0.438957
C 3.409629 6.800667 -0.750713
C 4.196042 5.709377 -1.051732
C 3.657028 4.447197 -1.027537
C -1.363599 2.002140 1.447374
C -3.036439 3.343357 2.709693
C -2.011048 1.100164 3.316882
C -1.116199 0.284433 2.707062
C -0.007640 -1.489081 -2.656499
C 0.167119 -2.913873 -4.693295
C 1.986293 -2.317628 -3.026050
C 2.014718 -1.541416 -1.905701
Br 1.222092 4.486181 -3.640610
Br -1.945882 3.378870 -4.414929