154
Tb1 H57 C88 N8
C -0.380947 2.813467 -3.750892
C 0.397204 1.919386 -2.924500
C 1.545979 1.268179 -3.337038
C 2.397933 0.516260 -2.506323
H 2.596883 -4.849600 1.104818
C 3.700734 0.047809 -2.902608
H 2.619345 -4.707437 -1.375445
C 4.304001 -0.456268 -1.812048
C 3.358989 -0.321128 -0.719272
C 3.708756 -0.575821 0.615671
C 0.422875 2.002285 4.864637
C 1.462548 2.799765 5.255777
Tb 0.022408 0.077954 -0.056911
H 0.100384 -4.664617 4.279926
C 1.554001 3.275923 6.556376
H -1.240923 -1.869328 1.325479
H 1.297291 -5.858439 5.887980
C 0.594549 2.955630 7.458077
H -2.136198 -0.995800 4.955425
H 3.598050 -5.724841 5.981987
C -0.419453 2.143763 7.101266
H -0.007114 -2.220452 4.958676
H 4.762869 -4.354601 4.466054
C -0.517324 1.664179 5.790059
C -2.784389 4.467347 -0.727254
H 0.114823 -4.823908 -3.789627
C -2.270970 5.749378 -0.939143
H 0.024975 -2.040608 -5.026635
H 1.096737 -6.111933 -5.483023
C -3.127738 6.819707 -1.127604
H -1.913181 -0.526493 -5.044792
H 3.187315 -5.591242 -6.283092
C -4.477067 6.650139 -1.084405
H -5.386781 0.763246 -1.308153
C -5.000113 5.382667 -0.868616
H -5.495883 0.566274 1.153775
C -4.152971 4.296752 -0.687663
C 2.022496 1.477826 -4.753051
C 2.611323 2.666167 -5.109861
C 3.099071 2.859713 -6.406445
C 2.961090 1.888555 -7.339974
H 3.567566 -3.157353 2.854949
C 2.389911 0.698159 -7.003222
C 1.934252 0.502900 -5.706729
C 5.062898 -1.098568 0.887224
H 4.350529 -3.791089 -5.379443
H 3.407122 -2.523617 -3.651214
H -4.218753 -1.468533 -4.220067
H -5.762219 -0.958118 -5.856437
H -6.455334 1.220563 -6.180237
H -5.609797 2.911097 -4.819488
H -4.043870 2.417811 -3.165801
H -4.619862 -2.013203 3.840422
N -1.000258 -1.497993 2.035797
H -6.266011 -1.593567 5.431266
N 0.806816 -2.405777 -0.013007
H -6.793870 0.605668 6.017939
N -0.799704 -1.093943 -2.076100
H -5.818374 2.361288 4.886097
N -2.559768 -0.094182 -0.017641
H -4.154576 1.955355 3.321724
N 1.694549 0.380606 1.694958
H 4.198108 -0.742305 3.375806
N -0.662846 2.025579 1.238872
H 2.462111 0.264821 4.816330
N -0.114129 1.932060 -1.632291
H -1.601921 3.515715 3.939282
H -2.747487 4.385818 1.915379
N 2.186950 0.244610 -1.175966
H -1.970941 4.000438 -3.250872
H -0.252592 2.974471 -4.678843
H 4.068149 0.086690 -3.776708
H 5.178417 -0.826233 -1.766724
H 2.133202 3.034419 4.625366
H 2.287227 3.822307 6.811994
H 0.636265 3.303328 8.339947
H -1.072458 1.895407 7.744339
H -1.240923 1.100667 5.546151
H -1.332376 5.886231 -0.953139
H -2.768345 7.682958 -1.290005
H -5.056268 7.393495 -1.201292
H -5.940311 5.259346 -0.843764
C 6.046416 -0.259296 1.377660
H -4.517178 3.431788 -0.536520
H 2.688336 3.363276 -4.469534
C 7.331568 -0.742305 1.655247
H 3.529059 3.675006 -6.632867
C 7.604322 -2.066300 1.486517
C 6.636848 -2.922700 1.015397
H 3.261119 2.035856 -8.227602
C 5.369345 -2.434552 0.702743
H 2.303272 0.007901 -7.651657
H 1.549188 -0.334659 -5.475991
H 4.709923 -3.025468 0.358089
C 2.138015 -4.210725 0.569951
C -2.015865 -0.982269 2.835667
C -1.645241 -1.253748 4.183475
C -0.480422 -1.939210 4.184102
C -0.082522 -2.170438 2.846768
C 0.953942 -2.970658 2.406781
C 1.303709 -3.144850 1.043616
C 2.149246 -4.135362 -0.779750
C 1.311731 -3.020672 -1.141415
C 1.000471 -2.718877 -2.477848
C 0.020162 -1.822911 -2.892736
C 1.045395 -4.588398 4.320367
C -0.388969 -1.649062 -4.264870
C 1.762577 -5.305205 5.269620
C -1.451104 -0.842333 -4.277676
C -1.763969 -0.541394 -2.894639
C 3.121533 -5.226416 5.328789
C 3.816253 -4.414549 4.429565
C -2.943228 0.065451 -2.470652
C -3.336314 0.198193 -1.115454
C -4.674412 0.518315 -0.727985
C 0.986031 -4.609808 -4.102030
C -4.735381 0.406983 0.609744
C -3.437394 0.002934 1.062245
C 1.570045 -5.373717 -5.118509
C -3.145387 -0.332432 2.388767
C 2.799042 -5.072264 -5.586660
C 1.720862 -3.752723 3.423540
H 5.849071 0.658765 1.526649
H 8.008639 -0.149677 1.961231
H 8.469112 -2.400296 1.694842
H 6.832589 -3.845899 0.904882
C 3.099071 -3.698598 3.480613
C 1.677542 -3.537252 -3.547635
C 3.485739 -4.010328 -5.049527
C 2.919374 -3.249845 -4.022486
C -3.947604 0.419658 -3.513394
C -4.491507 -0.565887 -4.336218
C -5.410848 -0.264434 -5.311043
C -5.824792 1.016740 -5.500579
C -5.319395 2.015303 -4.698480
C -4.385614 1.720701 -3.711793
C -4.205918 -0.072943 3.416069
C -4.849296 -1.115696 4.056444
C -5.823187 -0.869053 5.005421
C -6.153701 0.436101 5.338639
C -5.560060 1.467207 4.691096
C -4.581355 1.222276 3.750375
C 2.914561 -0.220073 1.722699
C 3.384660 -0.343223 3.088145
C 2.447671 0.216863 3.866674
C 1.416019 0.731730 3.005790
C 0.377951 1.558499 3.426014
C -0.563852 2.184185 2.601978
C -1.468753 3.224368 3.044503
C -2.088065 3.701725 1.940931
C -1.565019 2.982349 0.816766
C -1.826542 3.333816 -0.510697
C -1.141448 2.851663 -1.641070
C -1.313123 3.372868 -2.974312