22
H10 C10 N2
C 1.793029 2.438222 -0.908567
C -0.680276 1.737407 -0.068183
C -0.353055 3.185246 0.050814
H -2.648029 -2.687744 1.244760
H 0.205322 -0.266464 -0.293876
H 1.579286 -1.469402 -0.063122
H 0.904588 -3.842934 -0.453135
N 0.959322 3.436307 -0.549970
C -1.793029 -2.438222 0.908567
C 0.680276 -1.737407 0.068183
C 0.353055 -3.185246 -0.050814
N -0.959322 -3.436307 0.549970
H 2.245152 0.682333 -1.122245
H -2.245152 -0.682333 1.122245
C 1.551421 1.278411 -0.843890
C 0.348308 0.668470 -0.384320
C -1.551421 -1.278411 0.843890
C -0.348308 -0.668470 0.384320
H 2.648029 2.687744 -1.244760
H -0.205322 0.266464 0.293876
H -1.579286 1.469402 0.063122
H -0.904588 3.842934 0.453135