100
Fe1 H52 C41 N6
Fe 0.004090 0.044353 -0.121624
H 0.268366 -4.257123 -0.933750
H 4.313441 0.097750 0.733505
H 0.001257 4.450646 -0.131086
H -4.019536 0.105661 -1.848789
H -5.110229 -2.002557 -1.903651
H -4.770273 -3.509556 -2.322607
H -4.290692 -1.243124 -4.006566
H -5.496727 -2.275478 -4.207349
H -3.987159 -2.758034 -4.425488
H -3.252611 -5.105552 -1.669869
H -1.757207 -5.319143 -1.150507
H -2.451285 -4.893939 -3.893078
H -2.014198 -6.304032 -3.276203
H -0.953858 -5.111485 -3.371743
H 3.819695 -5.067976 -0.152817
H 2.429517 -5.238057 -0.923956
H 2.708767 -5.247946 1.923977
H 2.389046 -6.537400 1.031624
H 1.300376 -5.372540 1.170623
H 4.726245 -1.565487 2.528805
H 4.647327 -3.153572 2.697585
H 5.106673 3.718901 1.031470
H 4.428784 3.018798 3.201372
H 4.746481 1.499932 2.810469
H 1.941841 5.532442 0.177465
H 3.499974 5.338629 0.485872
H 5.535665 -1.893784 0.279981
H 5.304981 -3.468025 0.462273
H 1.456189 5.160637 2.475843
H 2.423446 6.420425 2.293641
H 6.065835 -2.439626 2.491208
H 3.022417 5.016265 2.771833
H -1.923139 5.526509 -0.600519
H -3.420565 5.322807 -1.130991
H -0.071591 -0.906916 5.654048
H 5.418299 2.198057 0.640742
H -1.109672 5.358406 -2.820016
H -1.216920 -2.002557 5.432225
H -2.178106 6.545020 -2.718151
H -1.595323 -0.544999 5.974123
H -2.601028 5.138882 -3.354725
H 5.936328 2.565907 2.920344
H -4.863356 3.714945 -2.060013
H -5.189148 2.170369 -1.805940
H -3.871817 3.178991 -4.145549
H -5.375314 2.631171 -4.110336
H -4.153090 1.624527 -3.888698
H -2.949078 0.532842 4.081065
H -2.526156 0.993644 1.695151
H 1.569508 -1.110618 3.537606
H 1.195151 -1.814676 2.151370
H 0.677123 -2.437648 3.531853
C -2.491351 -1.144239 -1.500939
C -0.968023 -2.692770 -1.163101
C 1.407624 -2.697715 -0.386862
C 2.853450 -1.153534 0.193831
C 2.770080 1.340926 0.440917
C 1.235218 2.888864 0.141992
C -1.143870 2.894006 -0.651408
C -2.565818 1.342706 -1.287614
C -3.100035 -2.407983 -1.864124
C -2.162120 -3.377051 -1.642415
C 2.655750 -3.381995 -0.080688
C 3.551575 -2.417871 0.271176
C 3.402439 2.610208 0.712045
C 2.448538 3.567607 0.525315
C -2.319957 3.589362 -1.150531
C -3.199189 2.622469 -1.545514
C 0.239024 -3.312578 -0.837468
C 3.398595 0.093004 0.479656
C 0.025540 3.503926 -0.206917
C -3.111569 0.106254 -1.571391
C -4.485357 -2.566000 -2.424225
C -4.572774 -2.176593 -3.897923
C -2.308827 -4.855374 -1.828043
C -1.894809 -5.334964 -3.216696
C 2.851427 -4.871591 -0.106633
C 2.259539 -5.570309 1.114549
C 4.972916 -2.573516 0.729726
C -1.000400 -1.047332 5.379281
C 5.115981 -2.419849 2.249537
C 4.827625 2.781476 1.180637
C 5.000032 2.435380 2.661022
C 2.588972 5.054435 0.752751
C 2.350598 5.447402 2.202335
C -2.473949 5.076980 -1.290262
C -2.052848 5.573974 -2.668966
C -4.538779 2.793737 -2.216584
C -4.479489 2.532287 -3.726999
C -0.353673 -0.778564 2.965595
C -2.214530 0.218389 3.567482
C -1.975751 0.469556 2.265103
C 0.877454 -1.605041 3.053974
N -1.194256 -1.348534 -1.083480
N 1.542595 -1.356841 -0.183635
N 1.442429 1.525049 0.101500
N -1.323763 1.537113 -0.732521
N -0.794200 -0.159152 1.886867
N -1.178472 -0.585344 4.010740