103
Ni1 P2 H38 C56 N4 O2
Ni 0.000000 -0.853261 0.000000
H 2.776622 4.189047 6.507817
P 1.060440 0.567811 -4.827586
H 1.720225 4.535103 4.497772
H -4.570980 -1.794906 1.781542
H 4.570980 -1.794906 -1.781542
H -3.425286 -0.695011 3.676052
H 3.425286 -0.695011 -3.676052
H -1.796043 -0.274133 -4.657247
H 6.004781 -5.173155 0.615122
H -3.617358 -1.383381 -3.423996
H 7.814303 -3.912391 1.378597
H -2.048769 2.469994 2.830245
H 2.048769 2.469994 -2.830245
H 7.544728 -1.680801 1.824087
H -4.119442 3.721405 2.687749
H 4.119442 3.721405 -2.687749
H 5.443729 -0.655729 1.596005
H -5.755425 3.390314 4.294447
H 5.755425 3.390314 -4.294447
H -5.413401 2.009833 6.086094
H 5.413401 2.009833 -6.086094
H 3.394959 0.894974 -6.311438
H -0.694155 0.780869 -7.043076
H -2.279593 2.355889 -7.774622
H -2.776622 4.189047 -6.507817
H -1.720225 4.535103 -4.497772
C 1.776836 -0.542372 3.745310
H 0.116254 3.008718 3.720868
H -0.116254 3.008718 -3.720868
C 2.775611 -1.123184 3.067622
H 3.929054 -4.163048 0.334959
H -3.929054 -4.163048 -0.334959
H -6.004781 -5.173155 -0.615122
H -7.814303 -3.912391 -1.378597
H -7.544728 -1.680801 -1.824087
H -5.443729 -0.655729 -1.596005
C -2.786394 -1.429771 0.662809
C 2.786394 -1.429771 -0.662809
C -3.688796 -1.442116 1.777649
C 3.688796 -1.442116 -1.777649
C -3.058664 -0.865233 2.816584
C 3.058664 -0.865233 -2.816584
C -1.715002 -0.551538 2.375679
C 1.715002 -0.551538 -2.375679
C 0.230992 1.745522 5.296811
C -0.659616 -0.118501 3.193552
C 0.659616 -0.118501 -3.193552
C 0.887912 1.545932 6.513436
C 0.657257 -0.396655 2.829938
C -0.657257 -0.396655 -2.829938
C 1.836479 2.484958 6.944542
C -1.776836 -0.542372 -3.745310
C 2.129305 3.566148 6.201510
C -2.775611 -1.123184 -3.067622
C 1.506587 3.768543 5.018210
C 2.349851 -1.280873 1.713305
C -2.349851 -1.280873 -1.713305
C 0.547911 2.857389 4.552165
C 3.142570 -1.677434 0.651286
C -3.142570 -1.677434 -0.651286
C -2.521031 1.549486 4.582189
C 2.521031 1.549486 -4.582189
C -2.716641 2.380206 3.500808
C 2.716641 2.380206 -3.500808
C 5.894930 -4.250403 0.808446
C -3.967806 3.119081 3.407360
C 3.967806 3.119081 -3.407360
C 6.964637 -3.504607 1.258275
C -4.928167 2.930154 4.375196
C 4.928167 2.930154 -4.375196
C 6.801881 -2.193337 1.526883
C -4.734410 2.116456 5.432169
C 4.734410 2.116456 -5.432169
C 5.552064 -1.573430 1.378048
C -3.538676 1.446792 5.551298
C 3.538676 1.446792 -5.551298
C -0.230992 1.745522 -5.296811
C -0.887912 1.545932 -6.513436
O -1.268518 -0.446038 5.894830
C -1.836479 2.484958 -6.944542
C -2.129305 3.566148 -6.201510
C -1.506587 3.768543 -5.018210
C -0.547911 2.857389 -4.552165
C 4.485390 -2.303327 0.913379
C -4.485390 -2.303327 -0.913379
C 4.664826 -3.646583 0.641681
C -4.664826 -3.646583 -0.641681
C -5.894930 -4.250403 -0.808446
C -6.964637 -3.504607 -1.258275
C -6.801881 -2.193337 -1.526883
C -5.552064 -1.573430 -1.378048
N -1.572464 -0.906198 1.054454
N 1.572464 -0.906198 -1.054454
N 1.034157 -0.839980 1.583322
N -1.034157 -0.839980 -1.583322
O 1.268518 -0.446038 -5.894830
P -1.060440 0.567811 4.827586
H 1.796043 -0.274133 4.657247
H 3.617358 -1.383381 3.423996
H -3.394959 0.894974 6.311438
H 0.694155 0.780869 7.043076
H 2.279593 2.355889 7.774622