75
Sn1 H24 C40 N8 Cl2
C -3.562277 -3.154837 -3.251452
H 3.607383 -3.826079 -0.916756
H -3.415686 6.703384 -2.629381
H 4.854948 -7.042878 0.875982
H -1.897489 4.876831 -2.556389
C 4.307537 3.778318 4.224884
H 3.415686 -6.703384 2.629381
N -3.050745 -2.678514 -5.931068
C 3.562277 3.154837 3.251452
C -0.761661 2.977991 0.401024
H 1.897489 -4.876831 2.556389
C 0.761661 -2.977991 -0.401024
C -0.480779 4.108776 1.254625
C 0.480779 -4.108776 -1.254625
H -4.519736 -3.975818 -6.193716
C 4.013328 3.525311 5.527582
N -0.054331 -1.947893 -0.776671
H -0.853921 -4.267550 -2.825680
Sn 0.000000 0.000000 0.000000
C -3.076373 0.543448 -2.982296
N 0.054331 1.947893 0.776671
C -3.059971 1.791700 -2.456109
H 0.853921 4.267550 2.825680
H -1.647361 -1.443170 -5.209128
C 3.076373 -0.543448 2.982296
C -2.013327 1.849788 -1.465560
Cl -1.812917 -0.466126 1.495923
C 3.059971 -1.791700 2.456109
C 2.552538 2.279641 3.605313
C -1.720144 2.937975 -0.636356
H -5.011791 -4.372109 -3.991944
Cl 1.812917 0.466126 -1.495923
C 2.013327 -1.849788 1.465560
H 1.647361 1.443170 5.209128
H -3.742698 -3.325230 -2.334915
C 1.720144 -2.937975 0.636356
H 5.011791 4.372109 3.991944
C 2.329063 2.055033 4.953441
H 3.742698 3.325230 2.334915
N 3.050745 2.678514 5.931068
C -2.597643 4.144919 -0.780293
C -3.548951 4.421161 0.179410
C 2.597643 -4.144919 0.780293
H 4.519736 3.975818 6.193716
C -4.291135 6.278694 -0.859714
C -0.477704 -3.729266 -2.139399
C 3.548951 -4.421161 -0.179410
C -3.419786 6.100557 -1.894791
C -0.820093 -2.366128 -1.849436
C 4.291135 -6.278694 0.859714
C -2.528961 5.012371 -1.860209
C -1.748848 -1.576128 -2.549440
C 3.419786 -6.100557 1.894791
C 0.477704 3.729266 2.139399
C -2.033830 -0.220735 -2.340537
C 2.528961 -5.012371 1.860209
N -1.400308 0.615735 -1.434632
H 0.892876 -4.964609 -1.206100
C 0.820093 2.366128 1.849436
H -0.892876 4.964609 1.206100
C -4.013328 -3.525311 -5.527582
H -3.669915 0.227190 -3.652504
N 1.400308 -0.615735 1.434632
C 1.748848 1.576128 2.549440
H -3.637111 2.505540 -2.699766
C 2.033830 0.220735 2.340537
H 3.669915 -0.227190 3.652504
N -4.395697 5.452550 0.160509
H 3.637111 -2.505540 2.699766
N 4.395697 -5.452550 -0.160509
C -2.552538 -2.279641 -3.605313
C -2.329063 -2.055033 -4.953441
H -3.607383 3.826079 0.916756
C -4.307537 -3.778318 -4.224884
H -4.854948 7.042878 -0.875982