12
H7 C3 N1 O1
H -1.351053 -0.804030 0.967630
C -0.508065 -0.983608 -1.485939
H 1.945533 0.200279 -0.635690
H 0.153485 -1.646813 -1.773070
C 1.102545 0.701008 -0.671430
H 1.119293 1.416471 -0.002207
O -0.107227 0.593641 1.768977
N 0.079515 -0.127523 -0.414946
H -0.759287 -0.423019 -2.249296
H 0.990891 1.090570 -1.562303
C -0.611345 -0.224438 0.821568
H -1.300809 -1.442530 -1.140928