70
C70
C -1.766864 3.077497 0.575607
C -2.495023 1.382238 -2.580158
C -2.353174 0.456807 3.191539
C -2.454832 2.246247 1.557771
C -2.505661 0.127174 -2.879801
C -2.251515 -2.147503 2.492372
C -3.313018 1.136549 1.089281
C -3.015136 -0.955908 -1.919041
C 0.305313 -3.001275 2.558959
C -3.238548 -1.621318 0.290233
C -2.143946 -2.100413 -2.142584
C 1.951944 -0.939529 3.386545
C 0.980278 -0.157417 -4.056971
C -2.407549 -2.724874 0.161814
C 0.529907 -3.095456 -1.973738
C -0.026850 3.486980 -1.526651
C 0.730860 -1.105370 3.907353
C 1.820733 1.007562 -3.586103
C 0.220204 -3.648258 0.290233
C 1.967311 -2.595887 -1.612263
C -0.405114 3.425558 0.932325
C 0.909353 2.188920 -3.355425
C -0.191158 0.069846 4.109493
C 1.528761 -3.228538 0.549448
C 3.492187 -0.437913 -0.939255
C -0.350739 1.767152 -3.731168
C -1.556455 -0.304831 3.774178
C 3.197851 -1.070564 1.360387
C 3.463817 0.966613 -0.527841
C -0.323551 0.348294 -4.106911
C -1.408696 -1.686835 3.476913
C 3.195486 0.297109 1.764667
C 1.772268 3.155299 -0.047460
C 1.220239 -1.416576 -3.507625
C -0.077679 -2.153645 3.583929
C 1.526397 2.459178 2.235535
C 2.719110 0.851958 -2.768030
C 0.145733 2.917799 2.221266
C -2.177044 2.842045 -0.627722
C 1.090211 3.030407 -2.344724
C -0.617887 2.201204 3.075011
C -2.980855 1.863381 -1.212739
C -1.548181 2.211441 -2.953523
C -1.895711 1.883855 2.761099
C -3.459596 0.788488 -0.382775
C -1.416970 -0.444055 -3.695497
C -3.249186 0.116937 2.130897
C -3.478509 -0.640607 -0.691931
C -1.218382 -1.766684 -3.215116
C -3.168805 -1.349012 1.702836
C -1.714853 -3.003322 -1.058161
C 0.053531 -2.233495 -3.108101
C -1.814147 -3.015607 1.441243
C -0.432302 -3.394378 -1.105724
C 2.274650 -1.568085 -2.625343
C 0.437705 3.607777 -0.125938
C -0.578879 -3.504939 1.426974
C 2.415317 -2.561081 -0.454119
C 3.077279 -0.534141 -2.261490
C 1.613870 -2.929615 1.859792
C 3.246316 -1.355154 0.059555
C 3.005172 1.724157 -1.633667
C 2.490970 -1.824012 2.294988
C 3.171845 1.406807 0.775369
C 2.172992 2.780622 -1.376830
C 2.360942 0.354437 2.963239
C 2.351485 2.442799 1.072634
C 1.646968 1.447756 3.120195
C -1.223110 3.155299 -1.835807
C 0.172921 1.290105 3.776556