101
Zn1 H38 C54 N4 O4
Zn 0.183276 0.611448 -0.988142
H 0.612584 -3.905188 -3.391759
H -1.819280 -3.523916 -3.256354
H -4.871683 0.653891 -1.904181
C 3.145007 0.986245 -0.356272
C 4.450006 0.580155 -0.827331
C 4.248722 -0.432375 -1.717892
C 2.836772 -0.665994 -1.793604
C 2.213535 -1.754238 -2.444282
C 3.097257 -2.797161 -3.073780
C 3.911136 -3.599451 -2.299143
C 4.678364 -4.593995 -2.881060
H -4.040982 -0.880189 -4.511014
C 4.656561 -4.773841 -4.256564
C 3.846272 -3.984320 -5.032031
H -6.034717 -1.961060 -5.071669
C 3.065604 -3.007760 -4.444019
H -6.977006 -3.475357 -3.559855
H -5.954630 -3.903389 -1.522444
H -5.271585 -3.106675 0.558597
H -4.296706 -4.345809 0.281069
H -4.039260 -3.565280 2.432713
H -3.647582 -2.115727 1.869060
H -1.856888 -1.022267 1.251304
H -0.340812 0.463255 2.233872
H 0.785538 -2.721806 4.613289
H -0.713765 -3.968134 3.447217
C 2.529264 -0.540282 4.746726
C 3.474144 0.643100 4.590469
H 3.161090 1.409241 5.132027
H 4.754635 3.687882 0.053330
H 6.533274 4.565527 1.295148
H 6.892845 3.820967 3.467893
N 0.454309 2.093733 0.376960
H 5.511308 2.186173 4.392949
C 0.832972 -1.967714 -2.504271
C 0.182796 -3.130054 -3.048075
C -1.139757 -2.921434 -2.978562
C -1.340646 -1.620792 -2.411370
C -2.584582 -0.988277 -2.263995
C -2.775880 0.256433 -1.648590
C -4.049256 0.920062 -1.508121
N 2.178165 0.253735 -1.006094
O 3.468607 0.972397 3.206256
C -3.812375 -1.714672 -2.691310
C -4.431219 -1.489865 -3.895991
C -5.614319 -2.131913 -4.236621
C -6.170504 -3.027543 -3.336258
C -5.575631 -3.277528 -2.129446
C -4.406091 -2.597712 -1.812148
C -4.323602 -3.372846 0.455805
C -3.613644 -3.086892 1.678758
C -1.360311 -2.577929 2.231289
C -1.279665 -1.347787 1.931527
C -0.403958 -0.437770 2.531216
C 0.432608 -0.950329 3.663132
C 0.269313 -2.311758 3.928946
C -0.618444 -3.050922 3.220369
C 2.897383 1.905435 0.672575
H -4.516156 2.616004 -0.433366
H -0.421809 4.200441 2.642777
H 1.997686 3.648316 2.727600
H -2.012650 5.524102 0.550863
H -3.495521 6.966462 1.642530
H -5.086030 6.151762 3.101156
H -5.309309 3.864130 3.410590
H -3.854676 2.385802 2.321186
H 5.285564 0.947039 -0.566474
H 4.922436 -0.898174 -2.200520
H 3.943848 -3.466365 -1.359617
H 5.221953 -5.153314 -2.336247
C 4.061481 2.424828 1.460614
H 5.199550 -5.441067 -4.657648
C 4.901420 3.378548 0.939608
H 3.822994 -4.108413 -5.973118
H 2.496428 -2.475417 -4.989431
C 5.965115 3.907293 1.677265
C 6.177705 3.461277 2.956909
C 5.357481 2.493709 3.508701
C 4.308386 1.972157 2.763221
H 2.531470 -0.855011 5.685024
H 2.822101 -1.286640 4.164096
H 4.387246 0.398511 4.885176
N -0.127018 -1.068308 -2.084843
N -1.808280 0.965923 -0.968685
O 1.231296 -0.123041 4.380379
O -2.343256 -3.478954 1.549642
O -3.777793 -2.700224 -0.623254
C -3.854357 1.991940 -0.706390
C -2.454306 2.010824 -0.342938
C -1.878618 2.872283 0.590218
C -0.528059 2.848903 0.971422
C 0.042250 3.606951 2.065291
C 1.362720 3.308408 2.109139
C 1.621815 2.374651 1.032917
C -2.794309 3.815572 1.308086
C -2.681986 5.171606 1.123855
C -3.561128 6.029468 1.788511
C -4.511762 5.551079 2.640913
C -4.635260 4.202239 2.832679
C -3.775761 3.320997 2.177271