78
Fe1 H8 C44 N4 Cl1 F20
Fe 0.000000 0.015856 0.152340
F -3.045770 2.473909 -4.116276
F 3.045770 2.473909 -4.116276
H -1.157904 4.251956 -2.580764
H 1.157904 4.251956 -2.580764
F -4.751266 4.417347 -4.903743
F 4.751266 4.417347 -4.903743
H -5.032058 0.801362 -1.078900
H 5.032058 0.801362 -1.078900
F -6.018930 5.942351 -3.045764
F 6.018930 5.942351 -3.045764
H -5.041707 -1.399879 0.177467
H 5.041707 -1.399879 0.177467
F -5.577720 5.534427 -0.421401
F 5.577720 5.534427 -0.421401
H -1.375011 -4.453853 2.170325
H 1.375011 -4.453853 2.170325
F -3.921435 3.552715 0.387150
F 3.921435 3.552715 0.387150
C -0.673032 3.520192 -2.211074
C 0.673032 3.520192 -2.211074
F -3.323667 -4.870502 -0.077417
F 3.323667 -4.870502 -0.077417
C -1.112070 2.306535 -1.572782
C 1.112070 2.306535 -1.572782
F -5.188134 -6.370519 1.189781
F 5.188134 -6.370519 1.189781
C -2.423155 1.933712 -1.396602
C 2.423155 1.933712 -1.396602
F -6.332046 -5.454327 3.484456
F 6.332046 -5.454327 3.484456
C -2.870637 0.767650 -0.803077
C 2.870637 0.767650 -0.803077
F -5.645264 -3.028995 4.476553
F 5.645264 -3.028995 4.476553
C -4.243236 0.343266 -0.681772
C 4.243236 0.343266 -0.681772
F -3.753539 -1.543455 3.230294
F 3.753539 -1.543455 3.230294
C -4.228762 -0.840645 -0.034816
C 4.228762 -0.840645 -0.034816
C -2.854957 -1.177772 0.242452
C 2.854957 -1.177772 0.242452
C -2.431598 -2.322020 0.909626
C 2.431598 -2.322020 0.909626
C -1.097838 -2.708725 1.072809
C 1.097838 -2.708725 1.072809
C -0.669654 -3.898585 1.745760
C 0.669654 -3.898585 1.745760
C -3.453931 2.939144 -1.844273
C 3.453931 2.939144 -1.844273
C -3.676345 3.204879 -3.194506
C 3.676345 3.204879 -3.194506
C -4.539949 4.202379 -3.600299
C 4.539949 4.202379 -3.600299
C -5.188857 4.955957 -2.670298
C 5.188857 4.955957 -2.670298
C -4.971992 4.733850 -1.322953
C 4.971992 4.733850 -1.322953
C -4.129375 3.728418 -0.928714
C 4.129375 3.728418 -0.928714
C -3.481673 -3.176736 1.540697
C 3.481673 -3.176736 1.540697
C -3.863540 -4.410225 1.064144
C 3.863540 -4.410225 1.064144
C -4.814951 -5.189583 1.706769
C 4.814951 -5.189583 1.706769
C -5.403552 -4.719588 2.847608
C 5.403552 -4.719588 2.847608
C -5.070655 -3.478168 3.348711
C 5.070655 -3.478168 3.348711
C -4.102357 -2.730539 2.698866
C 4.102357 -2.730539 2.698866
N 0.000000 1.572788 -1.188652
N -2.032604 -0.186222 -0.244210
N 2.032604 -0.186222 -0.244210
N 0.000000 -1.976961 0.652576
Cl 0.000000 0.993921 2.110539