84
Cd1 H29 C45 N9
H 1.677183 2.714145 -7.192572
H -7.485672 2.179098 -1.069877
H 1.881362 -1.257832 -5.043040
C -1.707677 1.885566 6.770643
H 1.929092 -2.814668 -0.181728
C -1.789879 -0.434826 5.467059
H -3.562522 0.735588 -3.724394
H 2.401090 -1.042327 -7.274012
H 3.722948 0.527514 -3.584636
H -1.979474 -5.092331 0.196461
C -2.142551 -0.280629 6.806863
H -0.000000 -6.266461 -0.000000
H -1.447813 0.817331 -4.935237
H 4.865819 -1.294988 2.303656
H 5.255615 2.275704 0.490504
H 4.959954 0.473638 -1.474362
H -1.929092 -2.814668 0.181728
C 6.703428 -0.464551 2.383795
C 2.391809 0.462491 1.947521
H -3.722948 0.527514 3.584636
C 6.940753 1.474992 1.335183
H -4.865819 -1.294988 -2.303656
C 1.937047 0.464349 -2.395639
H -5.255615 2.275704 -0.490504
C 1.292690 1.803823 -5.440042
N 7.509537 0.518225 2.035233
H -4.959954 0.473638 1.474362
H -7.060078 -1.148222 -2.903265
C 1.168062 -4.644601 -0.115373
C -1.305949 0.644555 4.789914
C -2.391809 0.462491 -1.947521
C 0.507795 0.531230 3.070351
C -6.940753 1.474992 -1.335183
C 1.707677 1.885566 -6.770643
C -1.937047 0.464349 2.395639
C 1.789879 -0.434826 -5.467059
C -2.712661 0.657560 -3.355718
C 1.126961 -3.280976 -0.107261
N -2.137248 0.854487 7.457365
C 2.142551 -0.280629 -6.806863
C -1.168062 -4.644601 0.115373
C -0.507795 0.531230 -3.070351
C 3.357018 0.494074 -2.731654
C -0.000000 -5.337561 -0.000000
C -1.552554 0.698432 -4.018535
C 0.902895 0.521941 -3.337392
C 4.776988 0.451344 1.285178
C 5.366985 -0.559299 2.035206
C -1.126961 -3.280976 0.107261
C 5.592378 1.540015 0.949295
C 3.056053 0.403041 -0.489409
C -3.357018 0.494074 2.731654
C 4.034520 0.460633 -1.570040
C -0.902895 0.521941 3.337392
C 3.351714 0.414188 0.897947
C -4.776988 0.451344 -1.285178
C -5.366985 -0.559299 -2.035206
C 1.305949 0.644555 -4.789914
N -0.000000 -2.580585 -0.000000
C -5.592378 1.540015 -0.949295
N 1.061995 0.378890 1.824527
C -3.056053 0.403041 0.489409
N 1.813744 0.391895 -1.052977
C -4.034520 0.460633 1.570040
C -3.351714 0.414188 -0.897947
N 2.137248 0.854487 -7.457365
C -6.703428 -0.464551 -2.383795
N -1.061995 0.378890 -1.824527
H 3.562522 0.735588 3.724394
N -1.813744 0.391895 1.052977
N -7.509537 0.518225 -2.035233
H 1.447813 0.817331 4.935237
H -1.002332 2.571094 5.001094
H -1.677183 2.714145 7.192572
H -1.881362 -1.257832 5.043040
H 7.060078 -1.148222 2.903265
H -2.401090 -1.042327 7.274012
C 2.712661 0.657560 3.355718
Cd -0.000000 -0.272826 -0.000000
C 1.552554 0.698432 4.018535
H 7.485672 2.179098 1.069877
H 1.002332 2.571094 -5.001094
C -1.292690 1.803823 5.440042
H 1.979474 -5.092331 -0.196461