13
H5 C7 N1
C 1.154842 -1.465324 -1.210615
N -1.563452 2.104348 1.700609
C 0.895275 -0.194558 -1.723371
H -0.038034 1.562530 -1.316608
C -1.005976 1.294570 1.099739
H 0.829544 -2.702846 0.357664
H 1.218276 0.051820 -2.580114
C 0.162163 0.700607 -0.969226
C -0.282228 0.339351 0.294647
C 0.668044 -1.825910 0.029103
H -0.371990 -1.188115 1.655538
C -0.046339 -0.936777 0.798738
H 1.668851 -2.084889 -1.717995