60
C60
C -2.358229 2.043960 1.692344
C 2.597655 1.557882 -1.841766
C 0.677645 3.428284 0.447371
C -2.335640 0.803424 2.540834
C -0.778550 -0.853312 3.341384
C 2.236242 2.103856 1.781131
C -2.225710 -0.907064 -2.598533
C 1.117365 0.534660 3.309587
C 1.442638 -3.150089 0.730853
C -0.673138 -3.449760 -0.452483
C 3.007257 -0.155486 1.866494
C -0.683679 0.849498 -3.373401
C -0.087347 2.503930 2.479441
C -1.230317 0.502025 3.284149
C 0.784564 0.861016 -3.340136
C -3.490206 0.339039 0.534690
C 0.653551 2.883078 -1.956479
C -1.427589 -1.863671 2.632556
C -1.231823 2.851787 1.681827
C -0.650549 -2.873454 1.950144
C -2.597665 1.446537 -1.919057
C -0.039158 1.363028 3.267028
C -3.069009 1.717796 0.483815
C 0.795105 -3.423843 -0.425822
C -0.715303 2.859466 -1.979226
C -2.234746 -2.086361 -1.784286
C 0.058725 -1.381816 -3.252328
C -3.459336 -0.436536 -0.622719
C 1.426073 1.886157 -2.640358
C -0.802644 3.411775 0.436120
C 2.344666 -2.036063 -1.680579
C 2.627773 -2.256642 0.739414
C 1.230307 -0.501999 -3.272629
C 3.040387 0.246699 -1.798228
C -1.388436 1.832405 -2.690989
C 1.389931 -1.843897 2.680741
C -1.112858 -0.549993 -3.311274
C -3.047625 -0.232660 1.790670
C -3.007267 0.148793 -1.855463
C 2.596149 -1.459949 1.914678
C -1.379400 -3.181764 0.689028
C 2.331113 -0.822596 -2.518307
C 0.081313 -2.528093 -2.466943
C 0.707763 -0.845633 3.352146
C 2.566032 2.366476 -0.636905
C -2.995220 -1.798016 -0.585541
C -2.647360 2.247836 -0.750396
C -2.564235 -2.350709 0.633750
C -1.451683 3.149730 -0.738411
C 2.237748 0.893652 2.586328
C -1.114364 -2.906474 -1.692320
C -2.592093 -1.554017 1.840078
C 1.233319 -2.860784 -1.656609
C 2.995210 1.826645 0.567710
C 0.710775 -2.866351 1.967755
C 1.109836 2.896133 1.685985
C 3.457518 0.450384 0.628124
C 3.061771 -1.702221 -0.469604
C 3.491853 -0.315784 -0.538090
C 1.380896 3.189085 -0.687291