60
C60
C -2.999584 1.863263 -0.309012
C -3.168923 0.836629 -1.356232
C -3.374981 -0.487836 -0.970598
C -2.712042 -1.545289 -1.691547
C -2.751443 -2.158525 0.586762
C -1.950853 -2.422407 1.680716
C -0.708471 -3.112930 1.546658
C 0.263471 -2.517029 2.481643
C 2.301078 -1.144651 2.440570
C 1.661947 -0.145946 3.126712
C 1.845873 1.240397 2.757632
C 0.593599 1.945125 2.909365
C 0.228094 2.929143 1.999405
C -1.144059 2.987891 1.515551
C -1.108682 3.364452 0.088637
C -2.021271 2.802499 -0.804324
C -2.329603 -2.574813 -0.738636
C -1.571934 2.377785 -2.099176
C -1.118071 -3.249686 -0.883213
C -2.296909 1.141682 -2.437336
C -0.297026 -3.527532 0.285654
C -1.652916 0.144661 -3.129237
C -1.852434 -1.236384 -2.752079
C 1.110504 -3.365977 -0.091487
C -0.606364 -1.938463 -2.897763
C 2.018734 -2.810043 0.799827
C 1.575098 -2.379310 2.100273
C 2.997214 -1.860936 0.304478
C 3.162530 -0.828523 1.341974
C 3.369426 0.483422 0.971461
C 2.697601 1.553636 1.689387
C 2.315832 2.575214 0.738685
C 1.111175 3.252976 0.886013
C 0.296501 3.525766 -0.285171
C 0.721526 3.111646 -1.543696
C -0.249074 2.515022 -2.490035
C 0.438343 1.461903 -3.204973
C -0.252428 0.299475 -3.516861
C 0.398607 -0.992727 -3.363055
C -0.238679 -2.927297 -1.991570
C 1.688438 -1.064475 -2.896721
C 1.136156 -2.991342 -1.507118
C 2.079092 -2.080035 -1.962300
C 3.030076 -1.494487 -1.020196
C 3.237140 -0.115850 -1.415228
C 3.409833 0.853242 -0.449242
C 2.746726 2.162779 -0.578782
C 1.970614 2.414141 -1.699684
C 1.793562 1.387024 -2.733702
C 2.421963 0.168257 -2.570767
C -1.773298 -1.384938 2.723572
C -2.415279 -0.169059 2.558157
C -3.225593 0.105416 1.408864
C -3.403651 -0.861508 0.447333
C -0.416737 -1.465113 3.199025
C 0.255591 -0.304852 3.519136
C -0.411707 1.002759 3.384381
C -1.701035 1.079564 2.906168
C -2.076600 2.084288 1.971311
C -3.046697 1.487906 1.020390