25
Cu1 H18 N6
N -0.009310 -1.598778 1.474573
Cu -0.000000 -0.025216 0.000000
N 0.009310 -1.598778 -1.474573
N -0.080683 1.614746 -1.394805
N 0.080683 1.614746 1.394805
H 2.316539 0.416745 -0.839510
H -2.316539 0.416745 0.839510
H 2.373949 -0.819901 -0.016694
H -2.373949 -0.819901 0.016694
H 2.358433 0.511601 0.642518
H -2.358433 0.511601 -0.642518
H -0.674946 -1.445251 2.077076
H 0.674946 -1.445251 -2.077076
H 0.791316 -1.617398 1.905956
H -0.791316 -1.617398 -1.905956
H -0.150505 -2.397328 1.064320
H 0.150505 -2.397328 -1.064320
H -0.712185 1.442599 -2.026652
H 0.712185 1.442599 2.026652
H 0.730804 1.713116 -1.794591
H -0.730804 1.713116 1.794591
H -0.296356 2.377111 -0.950192
H 0.296356 2.377111 0.950192
N 2.046561 0.028185 -0.062089
N -2.046561 0.028185 0.062089