60
C60
C -2.236206 2.624268 0.778716
C -0.473633 3.443169 -0.525283
C 2.185431 2.761569 -0.042114
C -2.677841 0.643213 2.178385
C 1.798009 -2.970740 0.586520
C 1.373563 -1.784069 2.710927
C -1.629289 1.030598 2.960760
C 0.043370 3.438265 0.748098
C -0.619082 -0.469904 -3.433013
C 0.056593 -2.240103 2.698013
C 3.471990 -0.666048 0.050176
C 2.050560 1.712198 -2.245594
C 3.019777 -1.033818 1.415682
C -2.068279 -1.690900 2.290208
C -2.693708 -0.048194 -2.235325
C 0.779869 -2.132224 -2.704580
C 1.737185 2.771376 -1.304130
C -0.994604 -1.332937 3.120044
C 3.444222 0.677539 -0.437006
C 1.135557 -2.911897 -1.607360
C 3.089857 1.682777 0.462168
C 2.719624 0.054781 2.262264
C -0.724863 -0.004062 3.478859
C 0.594752 0.466684 3.424900
C -3.461941 0.648117 -0.089450
C 2.250222 -2.598066 -0.732931
C 1.602314 -1.053432 -2.936541
C -3.048073 -1.710515 -0.447309
C -2.757176 -1.308419 -1.809365
C 2.920607 0.706960 -1.822984
C -0.611148 -1.818394 -2.972756
C 0.601364 1.815174 2.971032
C 0.388480 3.104821 -1.566907
C -3.061296 1.020791 -1.443906
C 0.749457 0.010649 -3.442662
C -0.354630 -3.127655 1.595866
C 3.026388 -1.489853 -1.050746
C 2.337491 -2.166549 1.589684
C 2.670700 -0.680759 -2.157176
C -1.838206 2.933195 -0.582554
C -0.106045 2.285919 -2.677598
C 0.010314 -3.402257 -0.828073
C -2.951548 -0.729795 1.805896
C 2.665411 1.373850 1.812868
C -1.700691 -2.750078 1.367535
C -1.091129 2.957713 1.534623
C 0.510128 -3.446389 0.498883
C 1.016553 1.315007 -3.109083
C 1.615537 -0.411061 3.102969
C 1.304806 3.069024 1.043921
C -0.818743 2.148619 2.634812
C -2.219016 2.182944 -1.648943
C 1.631404 2.266305 2.149086
C -3.022950 1.501343 1.030129
C -2.192571 -2.754981 0.127799
C -1.367481 -3.098233 -1.016126
C -1.630611 -2.245007 -2.125857
C -1.378059 1.717102 -2.735866
C -3.436818 -0.680759 0.409340
C -1.635900 0.393130 -3.108921