10
H6 C2 S1 O1
C -0.006780 1.553312 -0.299133
H -0.446252 0.047368 1.903993
H -1.145938 -1.299217 1.397257
H -1.852507 0.114526 1.144579
H 0.446652 1.813979 0.529579
H -0.902830 1.949434 -0.320075
H 0.509793 1.872031 -1.068149
O 1.244206 -0.773332 -0.160827
C -0.992684 -0.352168 1.196591
S -0.139850 -0.205444 -0.368677