85
Co1 H24 C48 N4 O8
H 0.349011 -7.604253 4.130324
H 1.549649 -7.420269 2.145982
C 0.329047 -6.791872 3.637334
C 1.038483 -6.681740 2.455677
O -1.171493 -6.896172 6.026319
H -0.349011 7.604253 -4.130324
H -1.549649 7.420269 -2.145982
C -0.329047 6.791872 -3.637334
C -1.038483 6.681740 -2.455677
O 1.171493 6.896172 -6.026319
H -2.955792 0.732050 -4.094872
H -4.000593 -3.327266 -6.924910
H -4.959917 -3.861079 -4.867970
H -4.081868 -2.991689 -2.886749
Co 0.000000 0.000000 0.000000
H -2.031760 2.974845 -3.607937
H 2.031760 -2.974845 3.607937
H -2.133264 -4.127986 -2.145833
H 2.133264 4.127986 2.145833
H -1.083754 -4.990898 -0.072885
H 1.083754 4.990898 0.072885
H -1.257086 -1.037827 -5.018414
H 1.257086 1.037827 5.018414
H -0.885774 -3.775565 3.710649
H 0.885774 3.775565 -3.710649
H 1.489392 -5.450859 0.889772
H -1.489392 5.450859 -0.889772
H 2.955792 -0.732050 4.094872
H 4.000593 3.327266 6.924910
H 4.959917 3.861079 4.867970
H 4.081868 2.991689 2.886749
C -3.639992 -2.964480 -6.124504
C -4.206144 -3.284509 -4.900736
C -0.963839 2.027714 -2.006152
C -3.679738 -2.767539 -3.718136
C -1.839235 2.170237 -3.139799
C 0.963839 -2.027714 2.006152
C -2.333294 0.949722 -3.411414
C 1.839235 -2.170237 3.139799
C -1.737914 0.034983 -2.467357
C 1.737914 -0.034983 2.467357
C -1.940806 -1.344899 -2.515531
C 1.940806 1.344899 2.515531
C 2.333294 -0.949722 3.411414
C -1.473087 -2.192264 -1.510139
C 1.473087 2.192264 1.510139
C -1.674349 -3.614903 -1.491465
C 1.674349 3.614903 1.491465
C -1.089976 -4.087820 -0.370147
C 1.089976 4.087820 0.370147
C -0.480833 -2.968367 0.284507
C 0.480833 2.968367 -0.284507
C 0.270921 -3.087568 1.453633
C -0.270921 3.087568 -1.453633
C -2.572297 -1.926653 -3.742405
C 2.572297 1.926653 3.742405
C -2.014898 -1.609215 -4.985012
C 2.014898 1.609215 4.985012
C -2.541897 -2.110637 -6.178648
C 2.541897 2.110637 6.178648
C -1.902084 -1.707685 -7.492696
C 1.902084 1.707685 7.492696
C 0.289470 -4.401371 2.178301
C -0.289470 4.401371 -2.178301
C -0.404609 -4.524459 3.378208
C 0.404609 4.524459 -3.378208
C -0.415887 -5.708696 4.105255
C 0.415887 5.708696 -4.105255
C 1.014986 -5.505277 1.711698
C -1.014986 5.505277 -1.711698
C -1.222765 -5.799393 5.379286
C 1.222765 5.799393 -5.379286
N -0.937716 0.714559 -1.572480
N 0.937716 -0.714559 1.572480
N -0.712964 -1.799678 -0.415700
N 0.712964 1.799678 0.415700
C 3.639992 2.964480 6.124504
C 4.206144 3.284509 4.900736
O -1.136588 -0.720389 -7.488733
C 3.679738 2.767539 3.718136
O -2.187434 -2.378580 -8.523232
O 1.136588 0.720389 7.488733
O -1.889895 -4.797456 5.738702
O 1.889895 4.797456 -5.738702
O 2.187434 2.378580 8.523232