109
Sn1 H34 C56 N8 O10
H -5.969867 0.228549 4.149568
H -5.776498 -2.652982 0.870297
H 2.088204 3.145319 -3.554058
H 2.905616 4.050454 -1.423098
H -2.183736 -2.807026 -3.740550
H -0.913466 -1.096432 -4.973919
C -5.225221 0.535631 3.646548
H -4.560514 -2.628818 -1.808814
C -4.893078 -0.114778 2.388745
H 2.694669 0.680613 -4.748797
C -5.721090 -1.276653 1.997330
H 3.067479 1.088377 -7.009602
H -0.701724 1.961294 -7.591949
H -1.210143 1.608905 -5.339004
H 2.952093 -2.703323 -3.612221
H 3.643370 0.139949 -0.820533
H 4.074830 -2.631839 -5.541428
O -6.721871 -1.547489 2.614223
O -5.280837 -1.984451 0.982362
O -4.735290 2.173734 5.297852
C 1.057169 1.653206 -2.407886
H 1.625974 5.284821 0.989946
C 1.890657 2.800985 -2.691461
H 3.059093 6.982327 1.623224
C 2.336230 3.298356 -1.528741
C 1.793430 2.482829 -0.464788
C -2.041457 -2.635866 -0.911722
C -1.536216 -1.842488 -1.947221
C -1.684289 -2.097215 -3.354196
C -0.995732 -1.160868 -4.030945
C -0.406726 -0.275870 -3.062797
C 0.427982 0.825596 -3.349267
C -2.938474 -3.762502 -1.315378
C -5.044642 -4.584071 -2.092300
C -4.234253 -3.518851 -1.749133
C 0.697724 1.106500 -4.796021
C 1.976497 0.949435 -5.310510
C 2.187792 1.193087 -6.665720
C -0.002941 1.704554 -7.002656
C -0.321742 1.492114 -5.656616
C 1.970669 -1.891823 -1.325130
C 3.032991 -1.468957 -2.141704
C 3.454990 -1.960287 -3.299840
C 4.469828 -1.596823 -4.117405
H -1.625974 -5.284821 -0.989946
C 3.855689 -0.291979 -1.639265
H -3.059093 -6.982327 -1.623224
N 1.000182 1.517284 -1.042495
C 2.509379 5.077415 1.272844
N -0.764528 -0.704777 -1.804778
C 3.374670 6.086253 1.642996
N 1.223458 1.565612 -7.502226
O 1.673846 -1.203155 -0.213574
O 1.391568 -2.955029 -1.630177
Sn 0.000000 0.000000 0.000000
H -2.088204 -3.145319 3.554058
H -2.905616 -4.050454 1.423098
H 2.183736 2.807026 3.740550
H 0.913466 1.096432 4.973919
H 4.560514 2.628818 1.808814
H -2.694669 -0.680613 4.748797
H -3.067479 -1.088377 7.009602
H 0.701724 -1.961294 7.591949
H 1.210143 -1.608905 5.339004
H -2.952093 2.703323 3.612221
N 4.631343 5.864752 2.027704
H -3.643370 -0.139949 0.820533
C -2.509379 -5.077415 -1.272844
C -3.374670 -6.086253 -1.642996
H -4.074830 2.631839 5.541428
C -1.057169 -1.653206 2.407886
C -1.890657 -2.800985 2.691461
C -2.336230 -3.298356 1.528741
C -1.793430 -2.482829 0.464788
C 2.041457 2.635866 0.911722
C 1.536216 1.842488 1.947221
C 1.684289 2.097215 3.354196
C 0.995732 1.160868 4.030945
C 0.406726 0.275870 3.062797
C -0.427982 -0.825596 3.349267
C 2.938474 3.762502 1.315378
N -4.631343 -5.864752 -2.027704
C 5.044642 4.584071 2.092300
C 4.234253 3.518851 1.749133
C -0.697724 -1.106500 4.796021
C -1.976497 -0.949435 5.310510
C -2.187792 -1.193087 6.665720
C 0.002941 -1.704554 7.002656
C 0.321742 -1.492114 5.656616
C -1.970669 1.891823 1.325130
C -3.032991 1.468957 2.141704
C -3.454990 1.960287 3.299840
C -4.469828 1.596823 4.117405
C -3.855689 0.291979 1.639265
H 5.969867 -0.228549 -4.149568
N -1.000182 -1.517284 1.042495
N 0.764528 0.704777 1.804778
H 5.776498 2.652982 -0.870297
N -1.223458 -1.565612 7.502226
O -1.673846 1.203155 0.213574
O -1.391568 2.955029 1.630177
H -5.929873 -4.405863 -2.385858
C 5.225221 -0.535631 -3.646548
C 4.893078 0.114778 -2.388745
C 5.721090 1.276653 -1.997330
O 6.721871 1.547489 -2.614223
O 5.280837 1.984451 -0.982362
O 4.735290 -2.173734 -5.297852
H 5.929873 4.405863 2.385858