107
Sn1 H32 C56 Br2 N8 O8
H 3.798387 0.589008 -3.486904
H 5.441645 0.000000 -1.281902
H 7.765932 3.185552 -2.002817
H 2.082632 -0.743623 -4.669015
C -1.581746 6.628794 1.024853
H 2.704346 -3.815054 3.211716
H -2.794418 -2.570774 -3.495012
H 1.135781 -4.040840 -0.503199
H -4.272910 -2.498376 -1.502287
H 2.666999 -7.373644 1.227027
H -0.797463 -0.114120 -5.443222
C -2.822977 5.676565 -2.374883
H -0.643683 -3.045662 -8.019463
C -2.458956 -0.591462 1.808946
C -2.497840 4.326755 -2.436447
H -0.180143 -4.568493 -6.331605
C -2.961380 -0.312910 3.133063
C -1.862945 3.742655 -1.359282
H 0.054922 -3.800329 -4.168695
C -2.016726 0.415987 3.779675
C -1.561974 4.461736 -0.235167
H -4.002696 -3.735292 1.081721
C -0.900716 0.608642 2.901281
C -1.882717 5.796820 -0.178386
O -1.105025 5.934256 2.052190
H -7.765932 -3.185552 2.002817
C 0.279002 1.316678 3.176660
C -2.489053 6.441048 -1.254765
H -7.568214 -0.949775 1.743662
O -1.753321 7.833806 1.046646
C 1.364256 1.522831 2.316356
H -5.441645 0.000000 1.281902
C 2.583518 2.180557 2.654193
C 3.389769 2.152333 1.562375
Br -3.670309 6.535044 -3.838762
C 2.653818 1.499516 0.513879
C 3.126145 1.282320 -0.799129
H 0.946851 -6.454546 -2.693244
C 0.396755 1.863965 4.573380
C 2.458956 0.591462 -1.808946
C 0.667848 1.038127 5.622758
C 2.961380 0.312911 -3.133063
C 0.575580 2.733979 7.123227
C 2.016726 -0.415987 -3.779675
C 0.900716 -0.608642 -2.901281
C -0.279002 -1.316678 -3.176660
C 4.499188 1.798929 -1.114397
C -1.364256 -1.522831 -2.316356
C -2.583518 -2.180557 -2.654193
C -3.389769 -2.152333 -1.562375
C -2.653818 -1.499516 -0.513879
C -3.126145 -1.282319 0.799129
C 2.822977 -5.676565 2.374883
C -0.396755 -1.863965 -4.573380
C 2.497840 -4.326755 2.436447
C -0.667848 -1.038127 -5.622758
C 1.862945 -3.742655 1.359282
H 0.180143 4.568493 6.331605
C -0.575580 -2.733979 -7.123227
C 1.561974 -4.461736 0.235167
H -0.054922 3.800329 4.168695
C -0.292184 -3.646941 -6.129438
C 1.882717 -5.796820 0.178386
H 4.002696 3.735292 -1.081721
C -0.177946 -3.197823 -4.864720
C 2.489053 -6.441048 1.254765
C -4.499188 -1.798929 1.114397
C 1.463115 -2.265227 1.431810
C -4.727662 -3.141376 1.235593
H 7.568214 0.949775 -1.743662
C -6.917941 -2.834601 1.756804
Br 3.670309 -6.535044 3.838762
C -6.805901 -1.506879 1.631562
N -1.199930 -0.028223 1.707998
C -5.555882 -0.941186 1.333708
N 1.450373 1.121569 1.020610
N 0.757920 1.455341 6.890700
H -0.946851 6.454546 2.693244
O 1.687195 -1.605047 2.464882
O 0.893467 -1.823471 0.416931
N 5.938137 3.680073 -1.565135
C -1.463115 2.265227 -1.431810
C 1.581746 -6.628794 -1.024853
H -2.704346 3.815054 -3.211716
N 1.199930 0.028223 -1.707998
H -1.135781 4.040840 0.503199
N -1.450373 -1.121569 -1.020610
H -2.666999 7.373644 -1.227027
N -0.757920 -1.455341 -6.890700
N -5.938137 -3.680073 1.565135
O -1.687195 1.605047 -2.464882
O -0.893467 1.823471 -0.416931
C 0.292184 3.646941 6.129438
O 1.105025 -5.934256 -2.052190
C 0.177946 3.197823 4.864720
O 1.753321 -7.833806 -1.046646
Sn -0.000000 0.000000 0.000000
H -3.798387 -0.589008 3.486904
C 4.727662 3.141376 -1.235593
H -2.082632 0.743623 4.669015
H 2.794418 2.570775 3.495012
C 6.917941 2.834601 -1.756804
H 4.272910 2.498376 1.502287
C 6.805901 1.506879 -1.631562
H 0.797463 0.114120 5.443222
C 5.555882 0.941186 -1.333708
H 0.643683 3.045662 8.019463