125
Sn1 H46 C58 N8 O12
Sn -0.006569 -0.004488 -0.007776
H -0.565222 -4.893267 1.602812
H 0.765845 4.832567 -1.441470
H 1.362758 3.542563 -3.450585
H 1.829007 -1.595905 -4.575794
H 1.460520 -3.791068 -3.275946
H 1.435139 5.029608 2.129172
H -1.928251 5.328249 -0.038697
H 0.243194 1.070310 -5.576772
H 1.294136 1.926208 -7.558233
H 1.750986 -5.136490 0.249174
H 2.100673 -7.516379 -0.261008
H -0.777667 -7.100745 -2.992285
H -1.065313 -4.930213 -2.419271
H 3.485322 -2.925933 2.958810
H 5.822210 -6.210981 3.455683
H -4.516125 1.101098 -1.702817
H -3.559185 2.729767 -2.879112
H -2.838190 3.305497 -1.572063
H -5.729690 3.367073 -2.036864
H -6.014516 4.438485 0.001176
H -4.431523 4.429248 0.275582
H -6.034256 2.015493 0.018085
H -4.069615 0.839402 0.638552
H -3.248978 2.215613 0.648034
C -0.227755 -3.064478 0.502315
C -0.646064 -3.948085 1.621961
C -1.135814 -3.289228 2.633968
C -1.014552 -1.839127 2.322999
C -1.117014 0.586943 2.815889
C -0.594363 2.468072 1.719291
C -0.229636 3.367073 0.762700
C 0.308996 3.071511 -0.561392
C 0.721664 3.887385 -1.519995
C 1.067591 3.197740 -2.617089
C 0.904968 1.910814 -2.278186
C 1.238675 0.771670 -3.157319
C 1.196374 -0.558359 -2.847715
C 1.501880 -1.660559 -3.687308
C 1.240555 -2.910539 -2.986939
C 0.572201 -2.534929 -1.754096
C 0.201833 -3.363119 -0.757170
C -0.355598 4.829488 1.031147
C 0.653043 5.485266 1.839737
C -1.314418 5.642284 0.614590
C 1.989751 1.073389 -4.446030
C 1.179454 1.230406 -5.608342
C 1.819607 1.633725 -6.822946
C 0.308056 -4.813219 -1.086814
C 1.228335 -5.555203 -0.423440
C 1.452059 -6.983752 -0.704228
C -0.245616 -6.728214 -2.299715
C -0.393199 -5.425894 -1.966990
C 2.427800 -0.884709 1.558171
C -2.477222 0.805536 -1.562919
C -3.747189 1.593701 -1.294813
C -3.653187 2.849839 -1.901165
C -4.923153 3.776549 -1.608208
C -5.176018 3.933566 -0.147046
C -5.289761 2.498859 0.479766
C -4.006634 1.735325 0.226817
C -5.670469 2.649719 1.996391
C -4.701308 5.220492 -2.202569
N -0.474981 -1.749843 0.981140
N -0.593423 1.162673 1.680222
N 0.466919 1.750718 -1.035123
N 0.596642 -1.100223 -1.668128
N 0.600402 -7.454804 -1.693045
O 1.972830 -0.151961 0.547111
O 1.883528 -0.906260 2.633841
O 5.857931 -5.419737 3.140276
O -1.997812 0.094340 -0.543998
O -1.946111 0.888663 -2.626527
O -5.259680 1.633725 2.662656
O -6.272081 3.542563 2.422172
O -5.300101 5.383667 -3.297532
H -1.503362 -3.664838 3.426112
H -1.994052 1.686064 4.462987
H -1.243917 3.739604 3.305652
H -0.329278 -1.577432 5.461416
H -1.494902 -1.657480 7.454328
H -4.904353 -1.177192 5.861214
H -3.869391 -0.749243 3.803106
H 0.985810 7.190905 2.832791
H -2.301439 7.292504 0.966561
H 4.796649 1.790742 -5.883889
H 3.882010 1.104177 -3.781708
H 4.462942 -1.146404 1.623579
H 2.791587 -3.566317 1.654839
H 5.616346 -3.283071 2.074641
H 6.054395 -4.363719 -0.038236
H 4.484563 -4.428373 -0.356656
H 6.013034 -2.033090 -0.100242
H 3.230576 -2.300943 -0.742075
H 4.036173 -0.912418 -0.739433
H 5.469703 -1.660559 -3.510933
H -5.544506 1.682985 3.452187
H -5.128077 6.168753 -3.577426
C -1.411240 -0.758479 3.052926
C -1.537203 1.726088 3.630246
C -1.155555 2.849839 2.981051
C -2.002512 -1.081750 4.408696
C -1.268357 -1.441966 5.495402
C -2.009093 -1.592826 6.658491
C -3.962453 -1.272634 5.782210
C -3.337340 -0.998623 4.550114
C 0.412398 6.824531 2.169338
C -1.450721 6.883028 1.076114
C 3.873550 1.575228 -5.807577
C 3.322698 1.227327 -4.538895
C 3.693066 -1.645165 1.223875
C 3.576504 -3.061399 1.982095
C 4.869971 -3.803383 1.657962
C 5.190517 -3.901903 0.095040
C 5.255379 -2.547245 -0.500158
C 3.972252 -1.805261 -0.314664
C 5.528924 -2.836649 -1.904873
C 4.843650 -5.161120 2.334150
N -3.257438 -1.657480 6.824449
N -0.476861 7.634248 1.699508
N 3.060433 1.602937 -6.923686
O 5.137876 -1.669795 -2.727690
O 6.396562 -3.443167 -2.383773
O 3.913971 -5.992388 2.124189
O -3.910752 6.017894 -1.701448