111
Sn1 H36 C56 N10 O8
N 0.842763 -1.555938 1.111837
N 1.617694 -1.288457 7.464784
O 6.556946 -2.104556 3.046385
O 5.126666 -2.520459 1.402298
H -0.092168 2.499516 -7.413847
H 0.540271 2.136426 -5.219510
H -1.952079 3.042444 -3.702059
H -2.493825 4.240983 -1.610019
H -3.737697 0.563416 -0.841697
H -5.549028 3.246184 -1.368138
C -0.572499 0.571383 -3.360136
C -0.996403 1.577108 -2.480952
C -1.719972 2.764720 -2.823311
C -2.016032 3.423290 -1.679336
C -1.477629 2.663191 -0.588292
C -0.908993 0.789920 -4.806521
C -1.939410 0.099025 -5.408181
C -2.262540 0.390407 -6.721574
C -0.596691 1.884881 -6.893389
C -0.207081 1.673173 -5.579375
C -3.996075 0.007057 -1.567573
C -4.975438 0.423415 -2.469887
C -5.631568 1.771060 -2.330797
Sn 0.000000 0.000000 0.000000
N -0.842763 1.555938 -1.111837
N -1.617694 1.288457 -7.464784
H 2.420113 0.565692 4.928818
H 2.987806 0.078537 7.117411
O -6.556946 2.104556 -3.046385
O -5.126666 2.520459 -1.402298
H -1.498702 3.405534 3.588218
H -0.367874 1.640165 4.885968
H 6.012028 0.070569 4.141330
H 5.514695 2.002117 5.403092
H -4.175783 3.385046 1.115827
H 4.586426 3.075452 4.963959
H -5.315453 5.329114 1.659553
H 3.362415 2.887647 2.938795
H -2.003847 7.394972 1.657926
H -0.743857 5.494155 1.234512
C -1.084060 2.231809 1.850615
C -1.114793 2.612199 3.234485
C -0.502482 1.641304 3.945790
C -0.090281 0.618050 3.035797
H 1.498702 -3.405534 -3.588218
H 0.367874 -1.640165 -4.885968
C 2.311957 1.723027 0.832366
H 4.175783 -3.385046 -1.115827
C -1.576828 2.974834 0.773787
C 3.402577 1.242929 1.752149
C -2.326066 4.231080 1.111645
H 2.003847 -7.394972 -1.657926
C -3.699962 4.197730 1.237716
H 0.743857 -5.494155 -1.234512
C -4.373140 5.365537 1.543532
H 5.315453 -5.329114 -1.659553
C -2.448934 6.561799 1.558957
C 5.348725 0.374472 3.532675
C -1.691073 5.434968 1.292086
C 4.758042 1.632198 3.722154
C 3.780234 2.041955 2.819911
N 5.105100 2.432362 4.809959
O 1.888180 0.848766 -0.026751
C 1.084060 -2.231809 -1.850615
O 1.865020 2.862720 0.927231
C 1.114793 -2.612199 -3.234485
C 0.502482 -1.641304 -3.945790
H -2.420113 -0.565692 -4.928818
C 0.090281 -0.618050 -3.035797
H -2.987806 -0.078537 -7.117411
N -0.463981 1.003904 1.766435
N -3.765730 6.531295 1.681957
H -6.012028 -0.070569 -4.141330
C 1.576828 -2.974834 -0.773787
H -5.514695 -2.002117 -5.403092
C 2.326066 -4.231080 -1.111645
H -4.586426 -3.075452 -4.963959
C 3.699962 -4.197730 -1.237716
H -3.362415 -2.887647 -2.938795
C 4.373140 -5.365537 -1.543532
C 2.448934 -6.561799 -1.558957
C 1.691073 -5.434968 -1.292086
N 0.463981 -1.003904 -1.766435
N 3.765730 -6.531295 -1.681957
C -2.311957 -1.723027 -0.832366
C -3.402577 -1.242929 -1.752149
C -5.348725 -0.374472 -3.532675
C -4.758042 -1.632198 -3.722154
C -3.780234 -2.041955 -2.819911
H 1.952079 -3.042444 3.702059
H 2.493825 -4.240983 1.610019
N -5.105100 -2.432362 -4.809959
O -1.888180 -0.848766 0.026751
O -1.865020 -2.862720 -0.927231
H 3.737697 -0.563416 0.841697
H 5.549028 -3.246184 1.368138
C 0.572499 -0.571383 3.360136
H 0.092168 -2.499516 7.413847
C 0.996403 -1.577108 2.480952
H -0.540271 -2.136426 5.219510
C 1.719972 -2.764720 2.823311
C 2.016032 -3.423290 1.679336
C 1.477629 -2.663191 0.588292
C 0.908993 -0.789920 4.806521
C 1.939410 -0.099025 5.408181
C 2.262540 -0.390407 6.721574
C 0.596691 -1.884881 6.893389
C 0.207081 -1.673173 5.579375
C 3.996075 -0.007057 1.567573
C 4.975438 -0.423415 2.469887
C 5.631568 -1.771060 2.330797