15
H9 C4 N1 O1
N 0.393071 0.338637 0.309831
H -1.900274 -0.410440 1.019220
H -2.226938 -1.293425 -0.274847
H -1.172115 -1.819994 0.806841
O -0.312185 -0.521191 -1.672946
H 1.197089 1.161213 -1.333138
H 1.658363 1.869010 0.025074
C -0.426252 -0.344996 -0.386552
H 2.271185 0.448381 -0.384913
C -1.525539 -1.025610 0.354084
H -0.486368 0.193655 2.138544
H 1.103240 0.020481 2.190511
C 1.467434 1.009182 -0.403881
C 0.365708 0.522886 1.784632
H 0.462813 1.474335 1.996223