113
Sn1 H34 C58 N8 O12
C 2.063678 -1.339756 1.877786
C 2.341640 -1.541231 3.270188
C 3.548114 6.468846 3.064280
C 1.324811 -1.010793 3.984656
C 0.386777 -0.442791 3.051306
C 0.816450 -0.211720 -3.365974
C 1.725949 -0.792243 -2.470833
C 2.934042 -1.484317 -2.802472
C 3.522040 -1.905481 -1.651994
C 2.676752 -1.475211 -0.558592
C 2.880754 -1.732462 0.807571
C 1.154721 -0.262943 -4.831997
C 1.501907 0.902656 -5.494764
C 1.811024 0.832083 -6.843735
C 1.450523 -1.409191 -6.898938
H 2.678642 -6.353879 -0.233927
C 1.133010 -1.458137 -5.551337
C 4.095366 -2.531535 1.177505
C 5.380855 -2.032968 1.038596
O 3.291956 7.732337 3.345464
C 6.457507 -2.835456 1.407684
O 4.554656 5.892876 3.418657
C 5.054825 -4.545152 2.050676
C 3.933487 -3.818930 1.702683
C 1.822493 2.356240 0.821739
C 1.666910 3.818930 1.159401
C 0.499527 4.495068 0.811591
C 2.655218 4.476856 1.876582
N 0.867230 -0.665894 1.768331
N 1.608123 -0.789966 -1.090395
N 6.305442 -4.068213 1.895541
O 0.846470 1.892960 0.104250
H -2.678642 6.353879 0.233927
O 2.796406 1.715388 1.211558
H -3.109164 1.972639 -3.628116
H -1.243155 1.011931 -4.930656
H -3.269250 1.626602 3.680289
C 0.924578 -6.576982 -0.855055
H -4.336113 2.390388 1.577412
H -1.528879 -1.733601 5.035524
H -2.050450 -1.636847 7.287653
H -0.909061 2.279975 5.131444
H -5.526212 1.158769 -0.695895
H -7.337522 2.490557 -1.309450
H -4.939448 5.415937 -2.412718
H -3.065411 4.187732 -1.817525
H 0.180619 -4.047724 -0.322175
H -3.455170 -4.020405 -2.108162
O 1.855017 -5.834824 -0.273987
O 1.075818 -7.749411 -1.121283
C -2.063678 1.339756 -1.877786
C -0.924578 6.576982 0.855055
C -2.341640 1.541231 -3.270188
C -1.324811 1.010793 -3.984656
C -0.386777 0.442791 -3.051306
C -0.816450 0.211720 3.365974
C -1.725949 0.792243 2.470833
C -2.934042 1.484317 2.802472
C -3.522040 1.905481 1.651994
C -2.676752 1.475211 0.558592
C -2.880754 1.732462 -0.807571
C -1.154721 0.262943 4.831997
H -1.186510 -7.381746 -2.170212
C -1.501907 -0.902656 5.494764
C -1.811024 -0.832083 6.843735
C -1.450523 1.409191 6.898938
H -3.934818 -7.979343 -4.052857
C -1.133010 1.458137 5.551337
O -1.855017 5.834824 0.273987
C -4.095366 2.531535 -1.177505
O -1.075818 7.749411 1.121283
C -5.380855 2.032968 -1.038596
C -6.457507 2.835456 -1.407684
C -5.054825 4.545152 -2.050676
C -3.933487 3.818930 -1.702683
C -1.822493 -2.356240 -0.821739
C -1.666910 -3.818930 -1.159401
C -0.499527 -4.495068 -0.811591
C -2.655218 -4.476856 -1.876582
N -0.867230 0.665894 -1.768331
N -1.608123 0.789966 1.090395
N -6.305442 4.068213 -1.895541
O -0.846470 -1.892960 -0.104250
O -2.796406 -1.715388 -1.211558
C -0.328354 -5.826856 -1.183885
C -1.311239 -6.476814 -1.910783
C -2.476026 -5.813196 -2.263328
H -1.423580 2.221923 7.389269
C -3.548114 -6.468846 -3.064280
O -3.291956 -7.732337 -3.345464
O -4.554656 -5.892876 -3.418657
H 1.423580 -2.221923 -7.389269
N -1.793496 0.293676 7.561659
H 1.186510 7.381746 2.170212
N 1.793496 -0.293676 -7.561659
H 3.934818 7.979343 4.052857
Sn 0.000000 0.000000 0.000000
H 3.109164 -1.972639 3.628116
H 1.243155 -1.011931 4.930656
H 3.269250 -1.626602 -3.680289
H 4.336113 -2.390388 -1.577412
H 1.528879 1.733601 -5.035524
H 2.050450 1.636847 -7.287653
H 0.909061 -2.279975 -5.131444
H 5.526212 -1.158769 0.695895
H 7.337522 -2.490557 1.309450
H 4.939448 -5.415937 2.412718
H 3.065411 -4.187732 1.817525
H -0.180619 4.047724 0.322175
H 3.455170 4.020405 2.108162
C 0.328354 5.826856 1.183885
C 1.311239 6.476814 1.910783
C 2.476026 5.813196 2.263328