159
Mn1 Fe2 H52 C84 N16 O4
H 3.242114 0.162226 -3.946112
H 3.490281 2.358031 -2.909921
H 3.453910 3.908761 1.022268
H 4.873397 5.744346 0.895353
H 4.885095 7.007668 -1.096058
H 3.867138 6.245077 -2.848066
H 2.306164 4.538506 -2.735034
H 1.541485 0.886497 7.136923
H 7.405678 -0.975913 2.158913
H 5.577917 -2.361863 2.446096
H 1.653174 1.394891 -7.915566
H -0.378194 0.445803 8.349287
H 1.055573 2.879199 -6.252023
H 5.601127 1.758943 4.411754
H -4.123902 3.750367 -1.628728
H -3.615765 5.697084 -0.508390
H -1.748850 6.905479 -1.093758
H -0.326930 6.052193 -2.715636
H -7.407161 -1.112592 -3.118751
C 0.862053 2.903341 0.315072
C 0.580655 4.056937 1.100695
C -0.346323 3.720988 2.004785
C -0.670129 2.340147 1.807865
C -1.540107 1.610767 2.611565
C -2.108337 2.331206 3.791093
C -1.569956 2.122994 5.041745
C -1.985036 2.867702 6.129434
C -2.937719 3.830842 5.975372
C -3.506206 4.035221 4.755658
C -3.107871 3.282849 3.649059
C -1.856482 0.274124 2.409692
C 2.795452 0.466241 -3.188653
C 2.916587 1.681023 -2.631317
C 2.000736 1.746552 -1.525518
C 1.797442 2.858761 -0.714175
C 2.672343 4.055659 -0.875240
C 3.493138 4.413324 0.243467
C 4.344634 5.500368 0.171177
C 4.381270 6.227193 -1.036966
C 3.732690 5.818434 -2.032936
C 2.812156 4.750550 -1.984869
C -2.011559 1.175183 -2.437834
C -1.406666 0.749818 -5.938190
C 1.030687 0.131569 6.949945
C 0.119726 0.137956 -7.672320
C 0.885088 1.242884 -7.414808
C 0.530312 2.131936 -6.424211
C 6.679192 -0.691059 2.664927
C -0.625933 1.895622 -5.683042
C 5.574440 -1.521351 2.842764
C 3.367737 0.395986 5.014430
C 4.535064 0.063869 4.150958
C 5.609087 0.926095 4.000564
C -0.612241 3.858944 -4.228765
C -1.471091 4.443981 -3.151223
C -3.361039 4.225550 -1.866578
C -3.058008 5.395624 -1.188560
C -1.945130 6.102011 -1.520003
C -1.114948 5.608945 -2.497151
C -3.820242 3.236863 -5.223990
C -6.685577 -0.539051 -3.239240
N 0.063841 1.862154 0.745457
N 1.377533 0.524362 -1.389483
N -2.557195 0.665511 -5.134069
N -1.146390 2.702666 -4.664145
N -4.506214 1.151680 -3.566530
N -2.589827 3.763141 -2.847460
N -1.556831 0.652354 -1.525212
N -4.374061 3.934309 -5.939743
O 3.245457 1.514581 5.526890
O 0.415787 4.413324 -4.594642
Fe 2.801772 -2.127976 3.962759
H -0.970988 -4.894893 -1.002028
H 0.714460 -4.284309 -2.647292
H 0.918651 -1.468979 -5.156841
H 1.612545 -2.713140 -6.966809
H 3.200502 -4.346900 -6.703849
H 4.166078 -4.682849 -4.658564
H 3.510520 -3.418250 -2.822043
H -3.242114 -0.162226 3.946112
H 7.407161 1.112592 3.118751
H -3.490281 -2.358031 2.909921
H -3.453910 -3.908761 -1.022268
H -4.873397 -5.744346 -0.895353
H -4.885095 -7.007668 1.096058
H -3.867138 -6.245077 2.848066
H -2.306164 -4.538506 2.735034
H -1.541485 -0.886497 -7.136923
H 0.378194 -0.445803 -8.349287
H -1.653174 -1.394891 7.915566
H -1.055573 -2.879199 6.252023
H -5.601127 -1.758943 -4.411754
H 4.123902 -3.750367 1.628728
H 3.615765 -5.697084 0.508390
H 1.748850 -6.905479 1.093758
H 0.326930 -6.052193 2.715636
H -7.405678 0.975913 -2.158913
H -5.577917 2.361863 -2.446096
C -0.862053 -2.903341 -0.315072
C -0.580655 -4.056937 -1.100695
C 0.346323 -3.720988 -2.004785
C 0.670129 -2.340147 -1.807865
C 1.540107 -1.610767 -2.611565
C 2.108337 -2.331206 -3.791093
C 1.569956 -2.122994 -5.041745
C 1.985036 -2.867702 -6.129434
C 2.937719 -3.830842 -5.975372
C 3.506206 -4.035221 -4.755658
C 3.107871 -3.282849 -3.649059
C 1.856482 -0.274124 -2.409692
C -2.795452 -0.466241 3.188653
C -2.916587 -1.681023 2.631317
C -2.000736 -1.746552 1.525518
C -1.797442 -2.858761 0.714175
C -2.672343 -4.055659 0.875240
C -3.493138 -4.413324 -0.243467
C -4.344634 -5.500368 -0.171177
C -4.381270 -6.227193 1.036966
C -3.732690 -5.818434 2.032936
C 6.685577 0.539051 3.239240
C -2.812156 -4.750550 1.984869
C 2.011559 -1.175183 2.437834
C 1.406666 -0.749818 5.938190
C -1.030687 -0.131569 -6.949945
C -0.119726 -0.137956 7.672320
C -0.885088 -1.242884 7.414808
C -0.530312 -2.131936 6.424211
C 0.625933 -1.895622 5.683042
C -3.367737 -0.395986 -5.014430
C -4.535064 -0.063869 -4.150958
C -5.609087 -0.926095 -4.000564
C 0.612241 -3.858944 4.228765
C 1.471091 -4.443981 3.151223
C 3.361039 -4.225550 1.866578
C 3.058008 -5.395624 1.188560
C -6.679192 0.691059 -2.664927
C 1.945130 -6.102011 1.520003
C -5.574440 1.521351 -2.842764
C 1.114948 -5.608945 2.497151
C 3.820242 -3.236863 5.223990
N -0.063841 -1.862154 -0.745457
N -1.377533 -0.524362 1.389483
N 2.557195 -0.665511 5.134069
N 1.146390 -2.702666 4.664145
N 4.506214 -1.151680 3.566530
N 2.589827 -3.763141 2.847460
N 1.556831 -0.652354 1.525212
N 4.374061 -3.934309 5.939743
O -3.245457 -1.514581 -5.526890
O -0.415787 -4.413324 4.594642
Mn 0.000000 -0.000000 0.000000
Fe -2.801772 2.127976 -3.962759
H 0.970988 4.894893 1.002028
H -0.714460 4.284309 2.647292
H -0.918651 1.468979 5.156841
H -1.612545 2.713140 6.966809
H -3.200502 4.346900 6.703849
H -4.166078 4.682849 4.658564
H -3.510520 3.418250 2.822043