12
H4 C6 Cl2
H -1.210165 0.028863 3.276370
C -0.479254 -0.487612 0.135943
Cl 1.252364 0.726013 -1.517864
C -1.105016 -0.670112 1.365002
C 0.164461 1.158538 2.282278
C -0.784441 0.152963 2.437417
C 0.790223 1.341038 1.054725
Cl -0.899079 -1.476762 -1.188007
H -1.751295 -1.358137 1.470436
H 0.382452 1.722463 3.015798
H 1.436502 2.029063 0.947785
C 0.467084 0.517963 -0.019195