25
H16 C8 N1
C -1.289105 -0.957555 0.245774
C -1.718932 0.519600 0.171970
C -0.567940 -1.327848 -1.046546
C -0.272241 -1.092423 1.398017
C -0.537934 1.361107 -0.234704
C 0.683842 -0.559523 -1.156499
C 0.824895 -0.072248 1.232335
C 1.911003 1.413302 -0.421473
H -2.079771 -1.552323 0.394887
H -2.449074 0.624902 -0.487746
H -2.054125 0.816527 1.054603
H -0.366618 -2.296923 -1.051065
H -1.151386 -1.130748 -1.822239
H -0.730792 -0.951898 2.264082
H 0.115526 -2.003098 1.396510
N 0.734621 0.546427 -0.138307
H -0.474332 2.152427 0.355726
H -0.658983 1.679752 -1.164030
H 0.754112 -0.172623 -2.066243
H 1.454248 -1.165423 -1.022447
H 0.736160 0.630377 1.923680
H 1.705578 -0.508423 1.345300
H 1.823550 1.802027 -1.316156
H 2.728854 0.876752 -0.377793
H 1.954345 2.132352 0.244267