165
Mn1 Fe2 H56 C86 N16 O4
H 5.538379 -1.376215 -0.750318
N -0.456945 -1.826665 0.763915
N 1.601004 -1.183456 -1.238956
Fe 3.582225 -3.473556 -1.984797
N 2.445345 -4.241808 -3.286788
N 2.794742 -4.775187 -0.863047
C 1.168238 -1.635947 5.267735
H 3.143278 -0.474571 3.935731
C 1.431176 -2.196228 6.508636
C 1.780727 -3.496746 6.592758
C 1.925624 -4.270378 5.464307
C 1.661339 -3.723084 4.222546
O 1.555319 -3.949423 -5.402631
O 2.923127 -5.741578 1.228981
H 3.805632 1.627408 2.891137
H 4.823445 2.850006 0.572669
H 6.183951 4.530847 1.416289
H 5.266565 6.289608 2.582033
H -3.106249 -2.090479 -3.499155
H -1.340903 -5.086681 -1.773305
H -2.638766 -6.791640 -2.656699
H -4.901762 -6.578288 -2.816865
H -5.907355 -4.626583 -2.148961
H -4.646804 -2.904927 -1.288439
H 1.348084 -6.943769 -0.018273
H -0.272028 -7.819439 -3.548989
H 0.726032 -5.997600 -4.534561
H -1.155620 -8.813844 -1.442424
H -0.306523 -8.624610 -0.137960
H 0.229002 -9.535529 -1.295874
H 3.170139 -2.298265 -6.627751
C 5.089208 -4.666099 -2.389888
N -1.638606 1.133545 1.098346
H -1.989244 -4.600610 1.032871
N -5.832638 5.367372 2.815973
N -2.289104 4.135868 3.248017
H -0.604342 -4.094131 2.967582
N -2.758054 4.792992 0.874333
N -4.644810 3.152595 0.345050
N -4.053740 2.312174 3.547557
N 0.478653 1.758758 -0.835996
Mn 0.011750 -0.034455 -0.042149
N 1.336922 0.264739 1.436931
Fe -3.534243 3.462975 1.976065
H 6.472124 -1.045983 1.343329
O -1.323847 3.767048 5.310753
O -2.974245 5.872923 -1.164223
H 3.001072 6.458434 2.793713
H 1.619890 4.766462 2.000081
H 1.685918 4.703384 -0.864343
H -0.006748 4.363876 -2.586078
H 0.079339 3.115304 -4.780966
H -0.853942 4.274825 -6.543839
H -3.070990 4.497453 -6.729512
H -4.474934 3.547574 -5.158860
H -3.568350 2.384343 -3.371769
H -2.675709 0.159918 -4.353624
H -1.247631 6.929663 0.031024
H 0.599222 7.575285 3.495202
H -0.433080 5.760867 4.465506
H -0.050124 9.410110 1.280900
H 0.538716 8.514032 0.138990
H 1.346025 8.721819 1.465231
H -5.604804 1.271203 2.981833
H -4.931829 4.746054 -2.430300
H -6.556469 3.180238 -2.788910
H -7.013417 1.595869 -1.178999
H -5.801894 1.645960 0.822240
H 1.729418 -4.257392 3.463775
C 2.311727 -2.031483 -1.533193
C 0.984179 -1.787149 2.772990
C 1.632477 -0.596460 2.467032
C 2.740990 -0.079407 3.197618
C 4.723770 -1.177705 -6.001818
C 5.449920 -0.880867 -4.905413
C 5.148875 -1.483818 -3.678874
C 4.232421 -3.854806 0.700598
H -2.913765 2.148728 6.556174
C 4.825479 -3.752768 1.936653
H -4.667016 0.664542 6.799426
C 5.693525 -2.693430 2.173694
H -5.995950 0.202589 4.992256
C 5.930408 -1.784366 1.184570
C 5.348697 -1.975455 -0.066335
H 0.903286 -0.747291 5.209202
H 1.367732 -1.678618 7.278830
C 4.447484 3.562416 1.038379
H 1.925909 -3.878924 7.427673
C 5.262571 4.573518 1.540241
H 2.197964 -5.155324 5.538143
C 4.715067 5.632856 2.222974
C -2.364502 -0.190721 -3.551825
C -2.608303 -1.426306 -3.078216
C -1.959608 -1.527416 -1.806049
C -2.007844 -2.646122 -0.974361
C -2.853352 -3.799335 -1.446370
C -2.261509 -4.977222 -1.850003
C -3.046691 -6.006876 -2.373573
C -4.389318 -5.880720 -2.475884
C -4.983937 -4.721200 -2.075364
C -4.227014 -3.688021 -1.561440
C 1.699411 -5.344373 -2.860033
C 1.903068 -5.638427 -1.502314
C 1.240540 -6.748227 -0.922058
C 0.428990 -7.533733 -1.718741
C 0.264159 -7.259159 -3.035269
C 0.866088 -6.177558 -3.632601
C -0.265193 -8.739634 -1.091241
C 2.357539 -3.682269 -4.493557
C 3.433952 -2.661891 -4.657263
C 3.689188 -2.081203 -5.889113
C -2.330687 1.988621 1.402391
C -4.978504 4.665723 2.540370
C 3.244001 -4.908578 0.385747
C 3.101460 1.080114 2.628364
C 2.207641 1.324262 1.547540
C 2.171307 2.503634 0.787067
C -1.330174 -2.748159 0.240938
C 3.081852 3.617145 1.226758
C -1.462588 -3.842932 1.151081
C -0.685666 -3.571326 2.202473
C -0.000657 -2.340936 1.956956
C 3.372855 5.720052 2.366444
C 2.541448 4.707094 1.882608
C 1.328500 2.699918 -0.292855
C 1.210033 3.920476 -1.021189
C 0.288167 3.729943 -1.973907
C -0.160895 2.381374 -1.879457
C -1.079934 1.786215 -2.755320
C -1.624742 2.592500 -3.895439
C -0.846773 3.183948 -4.843528
N 5.946485 -5.383889 -2.582233
C -1.408346 3.890792 -5.903251
C -2.713898 4.022513 -6.015776
C -3.553060 3.458523 -5.079150
N 4.153927 -2.370991 -3.565546
C -3.006361 2.753534 -4.014658
N 4.527773 -2.996390 -0.304311
C -1.539917 0.486625 -2.602620
C -1.517564 5.219139 2.822417
C -1.784289 5.577199 1.495655
C -1.101001 6.690338 0.917969
C -0.218801 7.397182 1.700173
C 0.009048 7.063240 2.991314
C -0.610726 5.983495 3.580199
C 0.467718 8.625346 1.088392
C -2.172542 3.540153 4.422632
C -3.262673 2.552612 4.611062
C -5.049710 1.451160 3.705680
C -3.287368 5.009497 -0.342328
C -4.369028 4.063328 -0.619335
C -5.103133 4.094867 -1.788587
C -6.075133 3.172817 -1.994186
C -6.353290 2.234069 -1.041808
C -5.610924 2.263752 0.153965
C 1.302718 -2.407724 4.091598
C -3.471691 1.955784 5.837614
C -4.506510 1.074548 5.979947
C -5.295382 0.809250 4.917602
H 4.917093 -0.780685 -6.821106
H 6.153459 -0.274206 -4.964724
H 5.651546 -1.263045 -2.926495
H 4.649461 -4.379837 2.601621
H 6.109963 -2.604379 3.001144
N -1.286019 -0.354352 -1.547328