89
Mn1 H36 C46 N4 O2
H 3.643365 6.761135 1.169112
H 2.781376 8.176465 -0.416559
H -0.601180 -5.183580 1.929452
H 0.985836 -5.006025 -0.132431
H 5.223477 -1.263322 1.162843
H 1.988256 -1.034672 2.579240
H -3.643365 -6.761135 -1.169112
H 1.452698 -0.210767 3.800190
H -2.781376 -8.176465 0.416559
H 2.077508 0.530110 2.566093
H -0.985836 5.006025 0.132431
H 0.601180 5.183580 -1.929452
H -5.223477 1.263322 -1.162843
H -1.988256 1.034672 -2.579240
H -1.452698 0.210767 -3.800190
H -2.077508 -0.530110 -2.566093
C 3.015171 6.448179 0.559491
C 2.511988 7.287413 -0.394417
C -1.196688 -5.499091 1.288193
C 0.192786 -3.045768 -0.035706
C 1.159824 -4.092703 -0.158388
C -3.015171 -6.448179 -0.559491
C -2.511988 -7.287413 0.394417
C 1.196688 5.499091 -1.288193
C -0.192786 3.045768 0.035706
C 1.550742 -0.222263 2.844206
C -1.159824 4.092703 0.158388
N 0.826758 -1.825238 -0.160004
C -1.550742 0.222263 -2.844206
O 0.283916 -0.155201 2.242738
N -0.826758 1.825238 0.160004
O -0.283916 0.155201 -2.242738
H 4.918956 0.974636 -0.978505
H 3.889518 3.192155 -0.857434
H 2.921476 4.557667 1.274756
H -1.277786 -7.399822 1.966287
H -4.918956 -0.974636 0.978505
H 3.173556 -3.964966 -0.399847
H -3.889518 -3.192155 0.857434
H -2.921476 -4.557667 -1.274756
H 7.378997 -2.055293 0.902469
H 8.037975 -2.967338 -1.088783
H 1.277786 7.399822 -1.966287
H 6.559098 -3.137228 -2.827743
H 4.392847 -2.332483 -2.592898
H -3.173556 3.964966 0.399847
H -7.378997 2.055293 -0.902469
H -8.037975 2.967338 1.088783
H -6.559098 3.137228 2.827743
H -4.392847 2.332483 2.592898
C 3.003724 0.200548 -0.522828
C 4.026800 1.158577 -0.789832
C 3.459890 2.379746 -0.716256
C 2.085645 2.201808 -0.381639
C 1.167872 3.238141 -0.207883
C 1.671805 4.644017 -0.298772
C 2.587152 5.122266 0.615400
C -3.003724 -0.200548 0.522828
C -4.026800 -1.158577 0.789832
C -3.459890 -2.379746 0.716256
C -2.085645 -2.201808 0.381639
C -1.612071 -6.823727 1.317279
C -1.167872 -3.238141 0.207883
C -1.671805 -4.644017 0.298772
C 2.360301 -3.520440 -0.317726
C -2.587152 -5.122266 -0.615400
C 2.170967 -2.103195 -0.336227
C 3.187239 -1.179654 -0.519703
C 1.612071 6.823727 -1.317279
C 4.584838 -1.698906 -0.697516
C 5.486389 -1.631205 0.350232
C 6.776943 -2.108943 0.196225
C 7.167423 -2.656936 -0.987890
C 6.291417 -2.751461 -2.025418
C -2.360301 3.520440 0.317726
C 4.990106 -2.268614 -1.882194
C -2.170967 2.103195 0.336227
C -3.187239 1.179654 0.519703
C -4.584838 1.698906 0.697516
C -5.486389 1.631205 -0.350232
C -6.776943 2.108943 -0.196225
C -7.167423 2.656936 0.987890
C -6.291417 2.751461 2.025418
C -4.990106 2.268614 1.882194
N 1.802622 0.850858 -0.276815
Mn 0.000000 -0.000000 0.000000
N -1.802622 -0.850858 0.276815
H -0.183203 -0.781752 2.506179
H 0.183203 0.781752 -2.506179