91
Mo1 H27 C50 Br5 N5 O3
H -0.954891 -3.910085 -5.794068
H -3.737436 -5.597428 -3.467590
C -2.331259 -4.931260 -4.748365
C -1.146536 -3.031762 -3.953335
Br 2.941199 6.756099 6.837100
C -1.414200 -3.959588 -4.964510
C -3.056433 -4.946818 -3.597843
Br -2.642490 -6.258080 -6.069801
Mo -0.693407 0.180554 0.825319
H 1.816061 -1.321789 -1.805012
H 3.354014 -1.351491 -5.538283
H 1.568617 1.880343 -4.228063
H -4.057179 1.389557 -2.922395
H -3.429592 -0.930009 -3.433942
H -1.987533 4.458739 -2.403755
H -3.235794 6.068291 -3.521849
H -6.586526 4.675137 -1.672038
H -5.309567 3.069828 -0.585772
H -2.277041 5.088133 0.483730
H -0.585217 5.170166 2.275034
H 0.384015 5.379493 6.484280
H -0.462208 3.784084 5.011437
H 2.480962 1.511193 4.674140
H 2.875113 -0.914451 4.377498
H 0.756091 -4.460275 3.163124
H 1.993005 -6.149032 4.213676
H 4.106598 -2.215671 2.866902
H 1.426344 -4.538065 0.679683
H -0.015999 -4.484319 -1.335829
H -0.480435 -2.368423 -4.092528
H -3.298753 -4.016163 -1.811109
C 0.765351 1.183059 -1.831024
C 1.577149 0.406570 -2.864426
C 1.975897 -0.894650 -2.638816
C 2.618330 -1.556575 -3.667638
C 2.895567 -0.886164 -4.846615
C 1.867342 0.992119 -4.078050
C -2.688138 1.279236 -1.284711
C -3.432757 0.860583 -2.438963
C -3.092764 -0.405278 -2.718237
C -2.127001 -0.831003 -1.738924
C -1.494171 -2.072819 -1.689947
C -0.554361 -2.507031 -0.727619
C 0.791484 -2.535318 1.056015
C 1.515028 -2.120908 2.179767
C 1.566695 -0.805544 2.695281
C 1.176502 1.378242 2.988293
C 0.642381 2.641274 2.864517
C -0.338500 3.059927 1.946464
C -1.851593 3.010424 0.310081
C -2.659542 2.563484 -0.733821
C -3.529620 3.593145 -1.405151
C -2.926792 4.501170 -2.268317
C -3.652798 5.455869 -2.926960
C -5.042369 5.499715 -2.694143
C -5.650355 4.624220 -1.827455
C -4.893034 3.676592 -1.186057
C -1.766844 4.351247 0.800316
C -0.847338 4.400749 1.783374
C 1.170959 3.704880 3.803867
C 0.910532 5.071161 5.756926
C 0.410515 4.136262 4.878946
C 2.096405 0.959589 4.003537
H 2.945959 3.962295 2.883317
C 2.318797 -0.368504 3.834896
H 3.805076 5.529416 4.370110
C 2.312592 -3.166127 2.884018
C 1.688746 -4.347126 3.301097
C 2.420887 -5.356985 3.912096
C 3.778309 -5.191504 4.073329
C 4.413246 -4.023235 3.719769
C 3.674207 -3.021861 3.121627
C 0.891260 -3.805422 0.395540
H 5.341493 -3.908671 3.886690
C 0.092442 -3.784207 -0.701588
C -1.820959 -3.061464 -2.776343
C -2.791882 -4.004848 -2.614639
Br 3.138368 -3.376019 -3.478975
Br 4.828820 -6.607288 4.790512
N -1.916756 0.217045 -0.867432
N -0.114031 -1.771559 0.350508
N 0.889259 0.277863 2.184453
N -0.964410 2.238179 1.023251
N 2.548549 0.378283 -5.056425
O 0.781259 0.635274 -0.646098
O 0.208269 2.207062 -2.144732
O -1.923195 -0.262002 1.872004
Br -6.078250 6.836152 -3.570464
C 2.423646 4.238097 3.627485
C 2.936531 5.167338 4.506405
C 2.190188 5.556289 5.562048