105
Sn1 H32 C56 I4 N6 O6
C -4.034668 -3.553241 4.785779
C -5.324024 -3.512222 4.364300
I -6.857807 -4.302754 5.582056
N 0.463011 -2.803625 6.266008
O 0.369229 -4.041363 6.307382
O 0.406314 -2.046831 7.262511
I 3.085780 -8.189989 -4.380701
H 2.757922 -6.947534 -1.601753
H 1.203567 -5.861565 -5.186996
C 1.775620 -5.169375 -1.574474
C 2.285162 -6.320974 -2.136798
C 2.095579 -6.556831 -3.500373
C 1.359015 -5.680058 -4.268250
H -2.757922 6.947534 1.601753
H -1.203567 5.861565 5.186996
C -1.775620 5.169375 1.574474
C -2.285162 6.320974 2.136798
C -2.095579 6.556831 3.500373
C -1.359015 5.680058 4.268250
H 3.812566 3.972656 -5.608474
H 6.544586 2.975903 -2.856976
C 4.034668 3.553241 -4.785779
C 5.324024 3.512222 -4.364300
I -3.085780 8.189989 4.380701
I 6.857807 4.302754 -5.582056
N -0.463011 2.803625 -6.266008
O -0.369229 4.041363 -6.307382
O -0.406314 2.046831 -7.262511
Sn 0.000000 0.000000 0.000000
H -2.540941 2.413948 3.808846
H 2.540941 -2.413948 -3.808846
H -3.348535 0.096394 3.948391
H 3.348535 -0.096394 -3.948391
H 2.406224 4.433091 -1.200619
H -2.406224 -4.433091 1.200619
H 0.916245 5.060676 0.644005
H -0.916245 -5.060676 -0.644005
H -1.905120 5.006326 0.648039
H 1.905120 -5.006326 -0.648039
H -0.331280 3.926510 4.210804
H 0.331280 -3.926510 -4.210804
H -2.137917 -2.993336 4.295670
H 2.137917 2.993336 -4.295670
H -4.851801 -2.019143 1.553865
H 4.851801 2.019143 -1.553865
H 0.862449 0.701419 3.554080
H -0.862449 -0.701419 -3.554080
H 0.479191 -0.278927 5.602826
H -0.479191 0.278927 -5.602826
H 1.106910 -3.949071 3.988754
H -1.106910 3.949071 -3.988754
H 1.516503 -2.958470 1.925681
H -1.516503 2.958470 -1.925681
C -0.680248 2.954368 1.708544
C 0.680248 -2.954368 -1.708544
C -1.362010 1.795591 2.147322
C 1.362010 -1.795591 -2.147322
C -2.284632 1.701249 3.236373
C 2.284632 -1.701249 -3.236373
C -2.729435 0.435823 3.311809
C 2.729435 -0.435823 -3.311809
C -2.103478 -0.310716 2.261991
C 2.103478 0.310716 -2.261991
C -2.302654 -1.682790 1.979118
C 2.302654 1.682790 -1.979118
C 1.660758 2.442661 -0.996336
C -1.660758 -2.442661 0.996336
C 1.819368 3.847549 -0.736760
C -1.819368 -3.847549 0.736760
C 1.002927 4.194157 0.265987
C -1.002927 -4.194157 -0.265987
C 0.277900 3.010769 0.667525
C -0.277900 -3.010769 -0.667525
C -1.073192 4.238252 2.344685
C 1.073192 -4.238252 -2.344685
C -0.845496 4.527434 3.684674
C 0.845496 -4.527434 -3.684674
C -3.333441 -2.382158 2.813561
C 3.333441 2.382158 -2.813561
C -3.038886 -2.972827 3.997459
C 3.038886 2.972827 -3.997459
C -5.646234 -2.969750 3.165313
C 5.646234 2.969750 -3.165313
C -4.632346 -2.402667 2.395197
C 4.632346 2.402667 -2.395197
C 1.234791 -1.014186 2.517591
C -1.234791 1.014186 -2.517591
C 0.916518 -0.243036 3.638039
C -0.916518 0.243036 -3.638039
C 0.681112 -0.821398 4.849967
C -0.681112 0.821398 -4.849967
C 0.734424 -2.190396 4.985346
C -0.734424 2.190396 -4.985346
C 1.056817 -3.005642 3.890177
C -1.056817 3.005642 -3.890177
C 1.300852 -2.414973 2.673399
C -1.300852 2.414973 -2.673399
N 0.702936 1.961717 -0.114741
N -0.702936 -1.961717 0.114741
N -1.255986 0.543497 1.579580
N 1.255986 -0.543497 -1.579580
H -6.544586 -2.975903 2.856976
O 1.518687 -0.461460 1.348044
O -1.518687 0.461460 -1.348044
H -3.812566 -3.972656 5.608474