90
Mo1 H27 C49 I4 N6 O3
Mo 0.566852 0.491296 -0.462176
H 1.000750 -7.271829 -1.513967
H -1.428873 -2.310654 -4.341489
H 0.396698 -3.741763 -3.441764
H 1.987522 2.990806 3.814896
H 0.567132 4.612728 2.620036
H -2.787825 4.291524 -1.550457
H -3.387090 2.470837 -3.162368
H -2.164383 1.302098 -5.396501
H -3.836289 0.996795 -6.990568
H -5.617716 -1.679377 -4.525285
H -3.891259 -1.439269 -2.977508
H 0.296371 -5.131528 -0.983906
H 1.238948 0.666050 5.112301
H -0.717781 5.806909 -1.265557
H -1.520971 7.993324 -0.833290
H -2.730526 6.837307 2.837790
H -1.971477 4.673153 2.441448
H -0.447963 -1.343861 2.716259
H -0.495959 -5.246016 3.813206
H -2.291567 -4.085229 0.371156
C 1.612543 -6.545144 -1.542979
C -1.785115 0.160392 -3.017234
C 2.931932 -6.753450 -1.885413
C -0.897974 -0.908169 -2.801577
C -0.868320 -2.111889 -3.600407
C 0.114406 -2.905359 -3.090418
C 0.645098 -2.259771 -1.936527
C 1.568302 -2.794051 -1.014217
C 2.000689 -2.207297 0.182209
C 2.691366 -2.859246 1.226772
C 2.824470 -2.003761 2.265550
C 2.222033 -0.766648 1.849139
H 3.011482 -3.752893 1.203495
C 2.130162 0.417992 2.632704
H 3.233076 -2.185035 3.105341
C 1.451974 1.593090 2.283688
C 1.500629 2.827024 3.016343
C 0.722844 3.712720 2.356477
C 0.176497 3.087803 1.209595
C -0.720087 3.631624 0.278758
C -1.266605 2.966954 -0.845257
C -2.364489 3.443990 -1.629294
C -2.690521 2.450165 -2.515380
C -1.771370 1.364113 -2.277768
C -2.853465 -0.024062 -4.029658
C -2.862036 0.681952 -5.223944
H 4.759211 -5.856622 -2.128734
C -3.851600 0.513399 -6.173550
H 3.982415 -3.698829 -1.690713
C -4.860231 -0.385019 -5.890841
C -4.896661 -1.087852 -4.704360
H 4.700561 0.122229 3.138317
C -3.885722 -0.932020 -3.780137
H 5.890092 0.173113 5.163724
C 2.044240 -4.186996 -1.315691
C 1.198892 -5.269868 -1.245436
C 2.183437 0.570643 5.122038
C -1.218738 5.032520 0.558865
C -1.110773 6.013624 -0.426142
C -1.589729 7.317523 -0.170182
C -2.161749 7.597384 1.059708
C -2.310490 6.627411 2.011276
C -1.856169 5.344184 1.779496
C -1.711218 -1.472661 0.561152
C -1.425199 -2.555533 1.401518
C -0.703846 -2.242279 2.548297
C -0.732809 -4.560674 3.198693
C -1.798887 -3.870562 1.154046
I -6.426874 -0.615745 -7.284794
I -2.871870 9.537330 1.445319
N 0.053190 -1.024247 -1.818864
I 5.296714 0.433734 8.152596
N 1.703448 -0.922480 0.578479
N 0.651175 1.777544 1.179895
N -0.912166 1.717120 -1.264147
N -0.357624 -3.245645 3.446677
N -1.454162 -4.873928 2.051913
O 1.861898 1.147857 -1.341314
O -0.993617 -0.418412 0.637295
O -2.634099 -1.711179 -0.220426
I 3.623163 -8.701347 -2.305981
C 3.844240 -5.703971 -1.921565
C 3.378264 -4.430285 -1.649133
C 2.853191 0.411631 3.940530
C 4.233897 0.249439 3.957844
C 4.944053 0.270110 5.156137
C 4.241057 0.438663 6.349097
C 2.862113 0.592905 6.341471
H 2.386682 0.713754 7.156263