10
H6 C3 O1
H 1.320538 -1.425743 -0.363611
H 1.042369 1.573485 -0.692898
C -0.075760 -0.011271 0.038736
H -0.452106 1.558939 -1.259977
O -1.175345 0.025524 0.558479
C 0.322403 1.003589 -1.033674
H 0.627843 0.529531 -1.832275
H 0.491486 -1.717537 0.974155
C 0.927829 -1.020141 0.436253
H 1.631433 -0.592291 0.967005