92
Mo1 H28 C51 I4 N4 Cl1 O3
Mo 0.682498 0.464221 0.584848
C 4.630545 -0.150604 -5.421841
C 0.690587 -5.313302 1.454119
C -2.388322 1.040537 5.413524
C 1.775287 2.290420 -3.161063
H 2.017574 -1.602817 -6.689925
C -2.127397 -1.978108 -1.578187
H -0.338201 -3.564120 -3.877612
C -1.471359 1.836807 2.309074
C -4.073148 0.645666 3.844224
H 2.968084 -4.061788 -0.496621
C 4.112424 0.099047 -4.144735
C 1.190071 3.354288 -2.568537
C -0.983057 -2.452932 -2.358066
H 1.197526 -1.193260 -4.521903
H 0.437117 -7.334979 1.484610
C -1.929840 -1.054565 -0.486494
C -2.291407 -3.763187 -3.724241
H 3.396746 -2.665053 -2.519625
H 5.510233 0.123522 -5.648647
C -3.398472 -3.443374 -3.041459
C -3.297829 -2.519832 -1.979514
I 4.595171 -1.135335 -8.273017
C 0.940329 5.974798 -0.946231
C 0.746499 2.946363 -1.279954
H -0.144372 -5.120762 1.039868
C -3.290375 1.073171 6.455905
C 0.832231 7.283422 -1.381309
N 1.677254 -1.137782 -0.314321
H -4.356437 0.511867 2.947952
H -2.414414 7.425380 -1.607785
C -0.584216 -2.738480 3.198025
C -1.508633 3.993914 1.671176
H 4.638000 0.567344 -3.505719
H -2.216857 5.163843 -0.871632
N -0.112315 -0.860393 1.985198
C -1.985752 3.155221 2.572827
H -0.114552 -2.147804 -2.124471
C -1.422901 -1.774145 3.621749
Cl -4.793672 -2.030322 -1.211364
O 1.964271 0.941004 1.559941
O -0.901052 -0.269718 -0.593091
H 2.144308 2.269208 -4.035431
H -2.362229 -4.342441 -4.474843
O -2.723796 -1.079041 0.495124
H -4.237157 -3.830087 -3.268230
H 1.093156 4.220721 -2.944259
C 3.847772 -0.793493 -6.335539
C 2.300863 -1.132887 -1.536739
H -1.471359 1.206971 5.598218
C -4.587542 0.841470 6.193386
C 2.859987 -0.328459 -3.815879
C 1.738012 1.193917 -2.222149
H 1.801379 5.610929 -0.771340
H 1.603822 7.825146 -1.502710
C 2.725797 -4.575774 2.400879
H -3.003358 1.255922 7.343264
C 1.540455 -4.282068 1.773729
C 3.064999 -5.900714 2.654864
H -1.687553 4.925615 1.627049
I -0.599498 9.758384 -2.353630
C 2.278498 -0.069019 -2.443062
H -0.546941 -3.627756 3.531402
H -2.574696 3.385290 3.282681
N 1.105084 1.636108 -1.075502
C -5.027386 0.707671 4.901370
N -0.646837 1.944499 1.196977
C 1.201253 -2.869016 1.395384
H -2.086395 -1.865520 4.296210
C 2.565515 -1.180206 -6.039016
C -1.132157 -0.579741 2.865986
I 2.723933 -8.900268 2.694709
C -1.721100 0.683195 3.041733
I -5.969323 0.819279 7.799278
C -1.109792 -3.298153 -3.386322
C 2.658702 -3.175775 -0.646528
C 2.084669 -0.933820 -4.748997
C -0.446298 7.789249 -1.635777
H 3.314741 -3.875775 2.657201
C 0.254470 -2.188597 2.146127
H 3.903684 -6.112835 3.050637
C -0.192829 5.180160 -0.765461
C 2.189038 -6.896051 2.335462
H -5.959259 0.658720 4.714062
C -1.557091 7.048457 -1.446303
C 1.838654 -2.394191 0.244419
C -1.441539 5.697409 -1.001946
C 1.022333 -6.630084 1.727524
C 2.904717 -2.400718 -1.749730
C -2.757343 0.779465 4.135520
C -0.025092 3.731211 -0.386888
C -0.662493 3.246596 0.754511