231
Zn2 Sn1 H74 C128 I8 N16 O2
H 1.410725 -0.398554 -8.733929
H -1.410725 0.398554 8.733929
H 3.415758 -1.265606 -9.413789
H -3.415758 1.265606 9.413789
H 7.758641 -3.806056 6.327594
H 2.311923 -7.771797 12.397031
H -0.119678 -1.057091 -12.285731
H 0.119678 1.057091 12.285731
C -2.771667 4.093754 -9.740898
C 2.771667 -4.093754 9.740898
C -4.136223 4.005333 -9.402223
C 4.136223 -4.005333 9.402223
H 5.105854 0.603109 0.510473
H 6.617862 0.925120 -4.237999
C -6.292967 -1.088764 -8.570671
C 6.292967 1.088764 8.570671
C -5.380359 -2.213161 -8.807575
C -4.024851 -2.062713 -9.209636
C 4.024851 2.062713 9.209636
C -3.165500 -3.212184 -9.416580
C 5.380359 2.213161 8.807575
C -1.955954 -2.713333 -9.746776
C 3.165500 3.212184 9.416580
C -2.067924 -1.292000 -9.716114
C 2.067924 1.292000 9.716114
C -1.017484 -0.406472 -9.976401
C 1.017484 0.406472 9.976401
C -1.107313 0.959432 -9.933214
C -8.432013 2.962758 -8.027769
C -0.015964 1.789533 -10.209446
C -9.573117 2.800434 -8.810891
C -0.484378 3.152797 -10.151826
C -10.776827 3.412781 -8.512823
C -1.885623 3.031384 -9.838944
C -10.812020 4.223086 -7.388542
C -2.281030 5.526963 -10.026392
C -9.689279 4.418403 -6.580889
C -1.502172 6.218494 -9.103569
C -8.513235 3.733472 -6.900966
C 1.885623 -3.031384 9.838944
C 6.100783 -3.216144 8.777553
C 7.045598 -0.922480 8.413396
C 7.120311 -2.329296 8.442445
C 7.623501 1.194341 8.223639
C 8.096341 -0.044870 8.064834
C -2.581804 6.106318 -11.254039
C 2.581804 -6.106318 11.254039
C -5.993040 -3.563228 -8.643066
C 5.993040 3.563228 8.643066
C -5.838377 -4.258718 -7.520633
C 5.838377 4.258718 7.520633
C -6.380485 -5.534882 -7.369756
C 6.380485 5.534882 7.369756
C -7.124523 -6.101039 -8.379786
C 7.124523 6.101039 8.379786
C -7.231945 -5.397631 -9.515685
C 7.231945 5.397631 9.515685
C -6.636378 -4.145222 -9.677629
C 6.636378 4.145222 9.677629
H -4.658607 0.002639 3.355451
H 4.658607 -0.002639 -3.355451
C -3.287260 -0.325969 -6.271170
C 3.287260 0.325969 6.271170
C -2.744888 -0.418349 -4.997693
C 2.744888 0.418349 4.997693
C -2.177494 0.687571 -4.373471
C 2.177494 -0.687571 4.373471
C -2.265937 1.864756 -5.016858
C 2.265937 -1.864756 5.016858
C -2.872890 1.922824 -6.288963
C 2.872890 -1.922824 6.288963
C -1.546645 0.517328 -3.045729
C 1.546645 -0.517328 3.045729
C -2.388384 0.117455 -1.975102
C 2.388384 -0.117455 1.975102
C -3.787077 -0.048829 -2.022760
C 3.787077 0.048829 2.022760
C -4.210585 -0.424948 -0.774149
C 4.210585 0.424948 0.774149
C -3.046257 -0.498852 0.058986
C 3.046257 0.498852 -0.058986
C -3.052837 -0.936997 1.402848
C 3.052837 0.936997 -1.402848
C 1.913783 0.917201 -2.230321
I -12.572993 5.268827 -6.904860
C 1.929108 1.301238 -3.634453
C -1.913783 -0.917201 2.230321
C 0.638484 1.177185 -4.090603
C -1.929108 -1.301238 3.634453
C -0.172835 0.756196 -2.994908
C 0.172835 -0.756196 2.994908
C -4.347829 -1.437169 1.947607
C 4.347829 1.437169 -1.947607
C -0.638484 -1.177185 4.090603
C -4.855155 -2.619633 1.420573
C 4.855155 2.619633 -1.420573
C -6.018055 -3.171273 1.945363
C -6.168437 -1.356666 3.521670
C 6.168437 1.356666 -3.521670
C -5.004653 -0.806345 2.996733
C 5.004653 0.806345 -2.996733
C 0.452920 -0.729802 -10.403540
C 6.018055 3.171273 -1.945363
C 1.490009 -0.748278 -9.612961
C -0.452920 0.729802 10.403540
C 2.687428 -1.261647 -10.023294
C -1.490009 0.748278 9.612961
C 2.880160 -1.775016 -11.290333
C -2.687428 1.261647 10.023294
C 1.756109 -1.718268 -12.099067
H -0.494482 7.959197 -8.778400
C 0.601396 -1.154750 -11.674327
C -0.601396 1.154750 11.674327
C -1.756109 1.718268 12.099067
C -2.880160 1.775016 11.290333
I 4.158205 -3.771215 -11.653110
I -4.158205 3.771215 11.653110
N -2.215072 1.723547 -9.697531
N 2.215072 -1.723547 9.697531
N -4.799692 2.859821 -9.059432
N 4.799692 -2.859821 9.059432
N -5.937395 0.223032 -8.692994
N 5.937395 -0.223032 8.692994
N -3.349237 -0.918521 -9.415942
N 3.349237 0.918521 9.415942
N -3.338623 0.863093 -6.885045
N 3.338623 -0.863093 6.885045
N 0.635035 0.570117 -1.894801
N -0.635035 -0.570117 1.894801
N -1.957534 -0.155726 -0.720570
N 1.957534 0.155726 0.720570
N -6.675764 -2.539130 2.994636
N 6.675764 2.539130 -2.994636
O 0.374641 -1.953177 -0.529640
O -0.374641 1.953177 0.529640
H 11.545930 -3.283449 9.055178
I 12.572993 -5.268827 6.904860
H 9.723706 -5.001717 5.833861
C 8.432013 -2.962758 8.027769
C 9.573117 -2.800434 8.810891
C 10.776827 -3.412781 8.512823
C 10.812020 -4.223086 7.388542
C 9.689279 -4.418403 6.580889
C 8.513235 -3.733472 6.900966
C -1.026957 7.488059 -9.408973
C -1.327730 8.067413 -10.636619
H -1.798098 2.085149 12.975439
C -2.105337 7.375883 -11.559298
C 1.955954 2.713333 9.746776
H 0.494482 -7.959197 8.778400
H 1.798098 -2.085149 -12.975439
C 1.107313 -0.959432 9.933214
C 0.015964 -1.789533 10.209446
I 7.967021 7.976749 8.166441
I -0.422193 10.180012 -10.743565
C 0.484378 -3.152797 10.151826
C 2.281030 -5.526963 10.026392
C 1.502172 -6.218494 9.103569
C 5.045785 -5.104655 9.289708
C 1.026957 -7.488059 9.408973
C 1.327730 -8.067413 10.636619
C 2.105337 -7.375883 11.559298
C 6.240190 -4.624279 8.905759
H -4.841309 6.016577 -9.459037
H -2.311923 7.771797 -12.397031
H -7.029426 5.129729 -8.750997
H -8.968525 0.287698 -7.775189
H -8.113064 -2.002007 -8.118677
H -0.268733 -2.436193 -0.291818
Zn -4.003138 0.961676 -8.940045
Zn 4.003138 -0.961676 8.940045
Sn -0.000000 -0.000000 -0.000000
C -7.623501 -1.194341 -8.223639
H -9.521868 2.246154 -9.581133
H -11.545930 3.283449 -9.055178
H -9.723706 5.001717 -5.833861
H -7.758641 3.806056 -6.327594
H -3.406108 -4.128066 -9.336440
H 3.406108 4.128066 9.336440
H -1.177765 -3.213504 -9.957993
H 1.177765 3.213504 9.957993
H 0.871498 1.507114 -10.400109
H -0.871498 -1.507114 10.400109
H 0.016900 3.948585 -10.288315
H -0.016900 -3.948585 10.288315
H -1.296837 5.822579 -8.265980
H 1.296837 -5.822579 8.265980
H 0.268733 2.436193 0.291818
I -7.967021 -7.976749 -8.166441
H -3.113028 5.635180 -11.884467
H 3.113028 -5.635180 11.884467
H -5.346724 -3.876001 -6.804233
H 5.346724 3.876001 6.804233
H -6.234007 -6.016577 -6.565383
H 6.234007 6.016577 6.565383
H -7.731344 -5.763192 -10.234849
H -6.617862 -0.925120 4.237999
H -6.684634 -3.701798 -10.516164
H 6.684634 3.701798 10.516164
H 4.841309 -6.016577 9.459037
H 7.731344 5.763192 10.234849
H 7.029426 -5.129729 8.750997
I 0.422193 -10.180012 10.743565
H 8.968525 -0.287698 7.775189
H 8.113064 2.002007 8.118677
H -3.617887 -1.101961 -6.706137
H 3.617887 1.101961 6.706137
H -2.762586 -1.252409 -4.541827
H 2.762586 1.252409 4.541827
H -1.920385 2.653945 -4.615974
H 1.920385 -2.653945 4.615974
H -2.943444 2.763482 -6.725705
H 2.943444 -2.763482 6.725705
C -5.045785 5.104655 -9.289708
H 4.338686 -0.077863 2.787814
H -4.338686 0.077863 -2.787814
C -6.240190 4.624279 -8.905759
H -5.105854 -0.603109 -0.510473
C -6.100783 3.216144 -8.777553
H 2.684059 1.582337 -4.137500
C -7.120311 2.329296 -8.442445
H 0.339345 1.343469 -4.977285
H 4.405730 3.051179 -0.704243
H -6.364985 -3.978938 1.584238
H 6.364985 3.978938 -1.584238
C -7.045598 0.922480 -8.413396
H -2.684059 -1.582337 4.137500
C -8.096341 0.044870 -8.064834
H -0.339345 -1.343469 4.977285
H 9.521868 -2.246154 9.581133
H -4.405730 -3.051179 0.704243