14
H5 C6 N1 O2
C -0.022346 -0.005432 0.168615
H 1.256915 -1.522463 0.186608
O -0.099072 1.489546 1.942311
H 0.804335 -2.156204 -2.021583
H -1.167217 1.567312 -0.218882
H -0.609351 -0.830688 -3.323542
H -1.714570 0.969553 -2.372053
C 0.632503 -1.036131 -0.340052
C -1.092201 0.457686 -1.868758
C 0.390082 -1.387822 -1.645937
C -0.804648 0.771074 -0.592434
C -0.463129 -0.611316 -2.410610
O 0.947088 -0.372212 2.249418
N 0.300207 0.419383 1.505532