104
Sn1 H32 C55 I3 N11 O2
H 6.405624 2.927480 -0.481760
C -2.353653 -0.388974 -1.925786
C -1.189476 -1.139329 -2.226633
C -1.007725 -1.982285 -3.362353
C 0.265674 -2.451972 -3.335579
C 0.895206 -1.925006 -2.148639
C 2.203006 -2.215219 -1.705528
H 4.639721 -5.766517 -3.215710
C 2.778931 -1.792309 -0.491488
H 3.223560 -4.729767 -1.678473
C 4.049176 -2.215219 0.020562
C 4.249847 -1.585150 1.200111
C 3.110897 -0.743149 1.451404
C -2.486955 5.349427 4.079767
C 2.927714 0.125583 2.540419
C 1.811698 0.930352 2.802373
C 1.658328 1.850635 3.905032
C 0.457171 2.418652 3.781484
C -0.166055 1.923188 2.591230
C -1.439167 2.263044 2.111744
C -2.067840 1.747533 0.945995
C -3.387967 2.102663 0.475296
C -3.631065 1.358036 -0.619457
C -2.490109 0.524626 -0.871126
C -3.545636 -0.586586 -2.800496
C -4.330259 -1.715937 -2.645315
C -5.502749 -1.873455 -3.354990
C -5.868257 -0.917850 -4.277403
C -5.110008 0.209592 -4.474628
C -3.931784 0.378565 -3.736133
C 3.085957 -2.949345 -2.654156
C 3.547500 -2.276317 -3.773842
C 4.381716 -2.907341 -4.694144
I -4.754821 6.129281 5.933543
C 4.788791 -4.198027 -4.484109
C 3.513099 -4.254352 -2.450006
C 4.100777 0.232503 3.491261
C 4.009042 -0.222865 4.806595
C 5.109864 -0.126445 5.634288
C 6.348289 0.837751 3.944508
C 5.290468 0.776654 3.061805
C -2.231817 3.221512 2.945277
C -3.444441 2.825333 3.490049
C -4.181189 3.706475 4.298187
C -3.678653 4.943701 4.590735
C -1.753074 4.505517 3.242271
C 1.122251 -2.816649 4.223009
C 0.202032 -1.888729 3.698922
C -0.503182 -0.969401 4.469140
C -0.196442 -1.013315 5.842383
C 0.709442 -1.925006 6.364879
C 1.371656 -2.821422 5.596292
C 4.418984 2.350872 -0.665619
C 3.140425 2.535119 -0.127742
C 2.850886 3.406715 0.934176
C 3.951708 4.069242 1.450132
C 5.273268 3.884994 0.921299
C 5.528406 3.041084 -0.132054
I -7.666839 -1.188398 -5.332759
N 0.682782 1.011498 2.035446
C 4.358783 -4.872010 -3.366047
N 2.225080 -0.920714 0.402039
N -1.551830 0.801475 0.100109
N -0.036193 -1.141238 -1.485612
N 6.282355 0.381429 5.193100
N 0.222959 -2.171305 2.371199
N 1.078963 -3.187053 2.072432
N 1.622781 -3.583233 3.219877
N 2.363829 1.745624 -0.928487
N 3.074203 1.120328 -1.881159
N 4.349609 1.480231 -1.726649
O -0.540163 -1.624291 1.389648
O 1.022489 1.562331 -0.855875
H -2.148682 6.212431 4.294120
Sn 0.328168 -0.070694 0.265039
H -1.664205 -2.178943 -4.023274
H 0.669308 -3.022853 -3.981108
H 4.642588 -2.829059 -0.393538
I 6.087991 -5.086234 -5.874579
H 5.009529 -1.681570 1.762742
H 2.294741 2.019608 4.588919
H 0.078763 3.047766 4.383866
H -3.974785 2.741324 0.864676
H -4.424861 1.380947 -1.141550
H -4.057920 -2.394693 -2.040713
H -6.053160 -2.634311 -3.209419
H -5.376613 0.866391 -5.108059
H -3.395707 1.150877 -3.868349
H 3.292361 -1.372263 -3.914054
H 4.671255 -2.440517 -5.469948
H 3.197759 -0.595178 5.129032
H 5.041063 -0.424296 6.533246
H 7.162439 1.223430 3.647158
H 5.379336 1.104099 2.176178
H -3.779848 1.953737 3.315728
H -5.026873 3.443946 4.642000
H -0.927457 4.802413 2.874452
H -1.133861 -0.364153 4.100187
H -0.623584 -0.400430 6.428250
H 0.872846 -1.919278 7.301576
H 1.988001 -3.434307 5.978599
H 1.973668 3.530819 1.271070
H 3.828439 4.664943 2.179914
H 5.995682 4.364229 1.311540