32
Re1 H8 C15 N2 Cl1 O5
Re 0.446174 0.674474 0.521458
H -1.788969 2.259709 -1.087032
H -3.405297 -0.232688 -3.848043
H -2.099689 -1.962197 -3.006963
H -1.059578 -3.545550 -1.894447
H 0.292711 -5.082399 -0.763246
H 1.834641 -2.047455 1.381620
H -3.692677 3.086817 -2.409041
H 2.171620 -5.552976 0.934161
C 0.302922 2.574165 0.770407
C 1.774831 0.607707 1.928445
C 1.853605 1.045067 -0.733815
C -1.842943 1.397169 -1.482456
C -2.745928 1.175721 -2.539699
C -2.820326 -0.077675 -3.114768
C -2.050090 -1.095228 -2.621991
C -1.185034 -0.851635 -1.547397
C -0.369575 -1.893548 -0.901714
C -0.457102 -3.248810 -1.221572
C 0.342309 -4.157854 -0.549260
C 1.202990 -3.727138 0.424135
C 1.240918 -2.356374 0.707680
C -3.640161 2.309535 -2.953226
C 2.057835 -4.657219 1.230756
N -1.058120 0.411726 -1.023614
N 0.475058 -1.461725 0.070609
Cl -1.443724 0.071249 2.033486
O 0.222689 3.722373 0.867256
O 2.556738 0.518021 2.739485
O 2.680734 1.286445 -1.464448
O -4.287859 2.247529 -3.962411
O 2.588831 -4.312868 2.215297