124
Zn1 H42 C56 N24 O1
C -2.758907 0.025027 -3.271332
C -2.235106 0.530111 -2.051226
C -2.647887 1.702567 -1.429392
C -2.177625 2.222554 -0.248707
C -2.594755 3.434755 0.364172
C -1.920038 3.577172 1.538534
C -1.027817 2.452740 1.629739
C -0.141440 2.201026 2.698111
C 0.646038 1.109715 2.825163
C 1.564976 0.831505 3.925000
C -0.021287 3.302274 3.712727
C 0.405048 4.562499 3.282565
C 0.688789 5.561074 4.167905
C -0.839349 -8.356047 -7.350578
C 3.584897 -2.478862 2.233422
C 0.591599 5.334200 5.521220
C 0.118264 4.115376 5.973444
C 4.693271 -1.789962 2.740451
C -0.210955 3.113489 5.047833
C 5.730681 -2.485486 3.304363
C 1.099800 6.357615 6.485093
C 5.684638 -3.845072 3.408898
C 4.607172 -4.520725 2.932560
C 1.525063 8.483934 7.007038
C 3.579533 -3.846728 2.362106
C -3.689661 2.505732 -2.163184
C 6.851756 -4.598557 4.070254
C -3.392598 3.635132 -2.828049
C 8.900336 -4.610149 4.919811
C -4.345663 4.342249 -3.527360
C 7.692671 -6.461570 4.893671
C -5.642748 3.911686 -3.550834
C -5.980737 2.712734 -2.908969
C -5.002287 2.013897 -2.211058
C -6.672649 4.704916 -4.279278
C -8.746687 4.893701 -5.092740
N 7.583840 -7.764851 5.231577
C -7.323476 6.635825 -5.243603
N 10.037951 -3.954369 5.246833
N 8.830923 -5.867062 5.292752
N 6.667554 -5.896870 4.291576
N 7.916420 -3.879848 4.307707
N -0.721413 -9.649392 -7.052113
N -0.555087 -7.491609 -6.334842
N 0.887316 0.149228 1.866613
N -1.231359 1.633014 0.542866
N -9.966211 4.370401 -5.341557
N -7.061192 7.861274 -5.591811
N -8.527488 6.155582 -5.481568
N -7.859338 4.097159 -4.511517
N -6.358740 5.945268 -4.598587
N 1.457012 9.777279 6.652631
N 2.026639 8.194132 8.149961
N 1.030474 7.619496 6.079702
N 1.559842 5.923740 7.623847
Zn -0.318545 -0.190917 0.222786
H -2.256431 -1.702193 -4.268172
H -0.011195 -2.063203 -5.141634
H -0.265549 -3.619854 -6.810986
H -0.661947 -6.478130 -4.026112
H -0.309403 -4.913199 -2.374183
H 3.013164 7.101164 10.098331
H 2.761217 5.670370 9.767710
H -1.954103 -5.506051 -10.142446
H -1.914569 -6.926909 -10.586631
H -2.311999 -1.268318 1.690919
H -1.908220 -2.321541 0.888671
C 0.902496 -2.404342 -1.532381
C -0.119402 -2.281797 -2.490679
C -1.077034 -1.286534 -2.525624
C -2.093481 -1.127557 -3.554964
C 2.108245 6.869323 8.431257
H -10.571545 4.850645 -5.718534
C -0.190540 -3.313492 -3.554484
C -0.149643 -2.954138 -4.913756
C -0.307388 -3.878192 -5.919216
C -0.534067 -5.219561 -5.573403
C -0.531095 -5.585540 -4.256789
C -0.338136 -4.638301 -3.261790
C -0.759470 -6.221448 -6.653903
C -1.354931 -6.700036 -8.764356
H 3.534128 -3.573486 -0.301903
H 2.171848 -3.919592 -2.274009
N 0.951801 -1.690601 -0.362233
H 2.876255 -0.678778 4.192503
N -1.207409 -0.261463 -1.605328
N 2.696849 6.505000 9.564730
N -1.793386 -6.334057 -9.976798
N -1.243069 -8.036437 -8.562609
N -1.176542 -5.742861 -7.836185
H 4.727107 -0.860939 2.692465
H 6.475275 -2.026771 3.618642
H 4.573829 -5.448091 2.996365
H 2.846551 -4.325315 2.049350
H 6.862456 -8.195414 5.051577
H 8.235391 -8.162294 5.625987
H 10.662276 -4.361747 5.676034
H -3.432290 0.412534 -3.784361
H 10.136953 -3.128019 5.027622
H -3.222705 4.029263 0.020593
H -0.906949 -10.245556 -7.644983
H -2.017982 4.262761 2.159424
H -0.460723 -9.887858 -6.268945
O -1.730194 -1.515064 1.110003
H 1.651583 1.339900 4.698289
H 0.496497 4.724788 2.369834
H 0.947637 6.399015 3.856777
H 0.018493 3.961366 6.885174
H -0.565108 2.308667 5.352372
H -2.516963 3.949774 -2.815616
H -4.106038 5.115606 -3.985615
H -6.851733 2.386499 -2.950349
H -5.216818 1.220667 -1.775522
C 2.059305 -2.164220 0.297301
C 2.736038 -3.142923 -0.506943
C 2.001708 -3.313492 -1.590428
H -10.136409 3.553988 -5.126044
H -7.668367 8.339861 -5.968958
H -6.281253 8.194132 -5.443651
C 2.255380 -0.259807 3.641099
C 1.860402 -0.685402 2.310964
H 1.744913 10.386691 7.188962
C 2.435045 -1.735313 1.609567
H 1.123981 9.999184 5.891706