242
H106 Ru4 C104 S12 N16
S -5.567390 -3.372575 8.453202
H 0.009194 3.855082 -3.619823
N -1.912260 0.104460 0.895541
S -5.932834 -6.066988 6.625250
H -6.541217 3.304593 -2.964370
S -4.681131 -6.295806 9.687954
H -4.511739 2.180401 -2.695177
H -6.093031 5.082076 0.630462
H 3.505044 2.163820 -6.801718
H 6.856097 -8.776323 1.838170
H 2.686818 0.955066 -5.001134
H 8.405212 -8.683470 2.226845
N 9.237229 -2.976290 1.720379
H 2.661535 4.402255 -2.766811
N 8.779849 -3.994363 -0.727508
H 7.292791 -7.831206 4.034437
H 3.560206 5.511524 -4.633535
H 4.927748 -1.286686 -1.376745
N -2.316777 -4.319351 8.672241
H 6.313677 -6.960704 3.117347
N -2.601777 -6.539546 7.117727
H 10.197956 -6.536230 4.818861
H 9.984205 -7.594098 3.634747
N 0.448186 -1.631570 1.311535
N 6.559605 -4.256343 1.166305
H 11.397715 -5.065496 3.415107
N -3.555609 -3.944620 5.924616
H 4.029077 -3.974466 -0.957915
H 10.740376 -8.151220 1.545966
Ru -8.625168 4.994197 -1.186482
H 9.395818 -8.917262 -0.147009
Ru 4.089985 5.096834 -7.736338
H 9.699205 -7.650473 -1.071800
C -7.600775 8.147903 -2.011182
H -6.587185 -3.215056 10.599398
C -7.246823 7.279059 -3.213019
H -7.219242 -4.445366 9.789631
C -10.030173 6.627426 -3.847841
H -5.918354 -5.450175 11.527558
C -11.216142 5.964186 -3.039523
H -4.668030 -4.493451 11.230069
H 10.188762 0.638368 2.320032
C -10.763360 7.602388 -0.722319
H -6.207951 -8.123032 9.729864
C -9.522229 7.935667 0.139636
H -7.014686 -6.755099 9.545732
H -8.676422 0.848947 1.802273
C 6.373435 3.986072 -10.014791
H -7.299686 -7.829548 7.514143
H -8.136300 1.984746 3.852491
C 5.403514 5.005804 -10.808013
H -5.775854 -8.313713 7.462184
H -8.175373 4.244736 4.001043
C 6.219443 7.262478 -9.239618
H -7.945534 -4.956061 6.064415
H -8.435091 5.543028 2.049677
C 6.366540 7.557620 -7.703563
H -7.927147 -5.284365 7.630879
C 7.382428 4.939480 -6.878494
H -7.766259 -2.964683 7.540264
C 6.977912 3.452164 -7.187081
H -6.695210 -3.009452 6.348166
C -9.616463 2.513680 -3.002893
H 9.627955 -3.123860 3.730635
C -9.977310 1.159012 -3.227268
H 10.232432 -0.867186 4.093800
C -9.956625 0.271928 -2.173579
C -9.588882 0.704692 -0.854235
H 9.598076 -0.096170 0.123950
C -9.223438 2.004643 -0.667925
C -8.885575 2.584978 0.669676
H -4.927748 1.286686 1.376745
H -3.015487 -2.759078 9.681057
H -1.011292 -2.041121 10.709597
C 2.217946 3.241585 -9.499658
H 0.979114 -3.225005 10.133609
C 1.025082 2.778976 -10.111303
H 0.914759 -5.050573 8.714462
C -0.144799 3.498591 -9.767455
H 0.723993 -6.595922 7.035863
H -4.029077 3.974466 0.957915
C -0.114919 4.579672 -8.921143
H 0.335565 -8.433097 5.650314
C 1.165284 5.002488 -8.336904
H -1.905365 -9.161003 5.244623
C 1.254921 6.141602 -7.441691
H -3.682021 -7.885924 6.100574
C 0.167782 6.867850 -6.858021
H 0.243629 -0.968330 0.770030
C 8.639647 -1.797380 -1.835250
C 0.395323 7.967170 -6.033931
C 8.331663 -2.497099 -3.076526
S 8.376022 -5.800034 3.409582
H -4.389925 -0.658266 2.846006
C 1.732986 8.388328 -5.769252
C 8.313276 -3.820262 -3.161764
C 2.790245 7.628918 -6.309665
C 2.459277 0.659924 -1.946121
H 2.277704 -3.894877 2.713632
C 8.499446 -4.597911 -1.990925
C 3.806134 0.258664 -2.209648
H -0.009194 -3.855083 3.619823
H 6.541217 -3.304593 2.964370
H 4.511739 -2.180402 2.695177
C -2.815528 2.021224 -0.524617
H 6.093031 -5.082077 -0.630462
C -1.723792 2.306417 -1.352598
H -3.505044 -2.163821 6.801718
C -1.585889 3.311226 -2.425788
H -2.686818 -0.955066 5.001134
C -0.335565 3.284696 -2.944107
H -2.661535 -4.402256 2.766811
C 0.399920 2.173769 -2.238723
H -3.560206 -5.511524 4.633535
C 1.776655 1.754270 -2.555923
C -6.051660 3.417344 -2.157914
C -4.840409 2.737523 -2.000607
C -4.100327 2.888410 -0.783296
C 4.114118 -0.795888 -1.397531
C -4.546215 3.803681 0.179850
C 2.912060 -1.016415 -0.549736
C -5.782749 4.470238 -0.028515
C 3.321173 2.619798 -5.987455
Ru 8.625168 -4.994197 1.186482
C 2.822423 1.890234 -4.907394
Ru -4.089985 -5.096834 7.736338
C 2.507543 2.533577 -3.643695
C 7.600775 -8.147903 2.011182
C 2.813229 3.923065 -3.572951
C 7.246823 -7.279059 3.213019
C 3.344157 4.589621 -4.706968
C 10.030173 -6.627426 3.847841
C 11.216142 -5.964186 3.039523
C 10.763360 -7.602389 0.722319
C 9.522229 -7.935667 -0.139636
C -6.373435 -3.986072 10.014791
C -5.403514 -5.005804 10.808013
C -8.639647 1.797380 1.835250
C -6.219443 -7.262478 9.239618
S -7.934961 7.139779 -0.432614
C -8.331663 2.497099 3.076526
C -6.366540 -7.557620 7.703563
S -8.376022 5.800034 -3.409582
C -8.313276 3.820262 3.161764
C -7.382428 -4.939480 6.878494
S -10.861731 5.795059 -1.197716
C -8.499446 4.597911 1.990925
C -6.977912 -3.452164 7.187081
S 5.567390 3.372575 -8.453202
C 9.616463 -2.513680 3.002893
S 5.932834 6.066988 -6.625250
C 9.977310 -1.159012 3.227268
S 4.681131 6.295806 -9.687954
C 9.956625 -0.271928 2.173579
C 9.588882 -0.704693 0.854235
C 9.223438 -2.004643 0.667925
C 8.885575 -2.584978 -0.669676
H -6.856097 8.776323 -1.838170
N -9.237229 2.976289 -1.720379
H -8.405212 8.683470 -2.226845
N -8.779849 3.994363 0.727508
H -7.292791 7.831206 -4.034437
H -6.313677 6.960704 -3.117347
N 2.316777 4.319350 -8.672241
H -10.197956 6.536230 -4.818861
N 2.601777 6.539546 -7.117727
C -2.217946 -3.241586 9.499658
H -9.984205 7.594098 -3.634747
C -1.025082 -2.778976 10.111303
N -0.448186 1.631570 -1.311535
C -4.114118 0.795888 1.397531
C 0.144799 -3.498591 9.767455
H -11.397715 5.065495 -3.415107
N -6.559605 4.256343 -1.166305
C -2.912060 1.016415 0.549736
C 0.114919 -4.579672 8.921143
N 3.555609 3.944620 -5.924616
C -1.165284 -5.002488 8.336904
H -10.740376 8.151220 -1.545966
C -1.254921 -6.141602 7.441691
H -9.395818 8.917262 0.147009
C -0.167782 -6.867850 6.858021
H -9.699205 7.650473 1.071800
C -0.395323 -7.967171 6.033931
H 6.587185 3.215056 -10.599398
C -1.732986 -8.388328 5.769252
H 7.219242 4.445366 -9.789631
C -2.790245 -7.628918 6.309665
H 5.918354 5.450175 -11.527558
C -2.459277 -0.659924 1.946121
H 4.668030 4.493451 -11.230069
N 1.912260 -0.104460 -0.895541
C -3.806134 -0.258664 2.209648
H 6.207951 8.123032 -9.729864
H 7.014686 6.755099 -9.545732
H 7.299686 7.829548 -7.514143
C 2.815528 -2.021224 0.524617
H 5.775854 8.313713 -7.462184
C 1.723792 -2.306417 1.352598
H 7.945534 4.956061 -6.064415
C 1.585889 -3.311226 2.425788
H 7.927147 5.284365 -7.630879
C 0.335565 -3.284696 2.944107
H 7.766259 2.964683 -7.540264
C -0.399920 -2.173769 2.238723
H 12.032071 -6.511359 3.162108
H 6.695210 3.009451 -6.348166
C -1.776655 -1.754270 2.555923
H -9.627955 3.123860 -3.730635
C 6.051660 -3.417344 2.157914
H 11.581586 -7.847787 0.219632
H -10.232432 0.867186 -4.093800
C 4.840409 -2.737523 2.000607
C 4.100327 -2.888410 0.783296
H -9.598076 0.096170 -0.123950
C 4.546215 -3.803681 -0.179850
C 5.782749 -4.470238 0.028515
C -3.321173 -2.619798 5.987455
C -2.822423 -1.890234 4.907394
C -2.507543 -2.533577 3.643695
H 3.015487 2.759078 -9.681057
C -2.813229 -3.923065 3.572951
H 1.011292 2.041121 -10.709597
C -3.344157 -4.589621 4.706968
H -0.979114 3.225004 -10.133609
H -0.914759 5.050573 -8.714462
H -0.723993 6.595922 -7.035863
H -10.188762 -0.638369 -2.320032
H -0.335565 8.433097 -5.650314
H 1.905365 9.161002 -5.244623
H 8.676422 -0.848947 -1.802273
H -12.032071 6.511359 -3.162108
H 3.682021 7.885924 -6.100574
H 8.136300 -1.984746 -3.852491
H -0.243629 0.968330 -0.770030
H 4.389925 0.658266 -2.846006
S 7.934961 -7.139779 0.432614
H -11.581586 7.847787 -0.219632
H 8.175373 -4.244736 -4.001043
H 8.435091 -5.543028 -2.049677
S 10.861731 -5.795060 1.197716
H -2.277704 3.894877 -2.713632