116
Zn1 H41 C57 N9 Cl4 O4
Zn 0.977171 -0.812212 -0.317722
N 2.560008 1.135907 4.998261
H 1.046884 3.939463 -2.011204
N -3.814343 -2.440390 2.440321
N -3.790304 0.501446 -2.994711
H 1.817469 0.759026 5.338855
N 2.284894 -2.268218 -1.209415
H -3.294833 -1.708320 2.515295
H -3.086495 0.761738 -2.498669
Cl -1.176727 4.381688 -1.210912
H -0.745360 1.087102 -4.848931
Cl -0.048228 2.379883 5.682076
Cl -6.521406 -0.855866 0.300999
H 1.245874 2.553953 -4.299551
Cl -3.544706 1.802633 -0.367930
H 4.671436 2.873895 -0.179897
H 4.922511 1.621242 2.030254
O 1.463561 6.870454 -2.713221
H 2.040497 -1.976746 4.657489
O 3.461472 3.004041 4.111691
H -0.064254 -3.291760 4.191276
O -5.931114 -3.120944 2.038563
H -3.258775 -3.885550 -0.083382
O -6.031277 0.813254 -3.193114
H -3.360273 -2.833539 -2.386304
H 6.288729 3.234507 -3.960639
H 4.914498 1.694449 -2.804666
H 5.502119 5.428006 -4.391117
H 3.321244 6.086868 -3.694375
H -1.027151 6.344449 -2.365400
H 6.774852 -1.849312 4.381630
H -0.358064 6.488151 -0.883570
H 5.212315 -1.613422 2.609655
H 6.379543 -0.740361 6.462671
H 4.491144 0.691242 6.691924
H 1.036200 3.725265 4.187889
H 1.605124 3.953020 5.701504
H -0.424839 -5.363247 2.292197
H -1.605423 -7.044296 3.425878
H -3.817014 -6.596920 4.237024
H -4.846686 -4.484763 3.755285
H -5.800235 -0.355347 2.399360
H -4.551540 -0.406863 1.346709
H -1.048519 -2.334647 -5.094744
H -2.587017 -2.719661 -6.880779
H -4.655710 -1.553772 -6.923445
H -5.237989 -0.054385 -5.178051
H -5.778867 1.602263 -0.823864
H -5.113787 2.816956 -1.689763
H 0.875940 -3.671352 -1.459839
H 2.254178 -5.257504 -2.502757
H 4.515183 -4.753189 -2.959784
H 5.411304 -2.660011 -2.180806
H 3.943588 -1.106396 -1.134410
C -0.352722 0.121854 -2.931409
C -0.183113 1.041009 -4.024163
C 0.869262 1.821883 -3.730349
C 1.350043 1.401621 -2.443011
C 2.471865 1.952029 -1.799140
C 2.968671 1.548035 -0.537036
C 4.094499 2.128268 0.149340
C 4.224043 1.463983 1.332194
C 3.167661 0.498735 1.389652
C 2.901896 -0.344501 2.489425
C 1.842843 -1.236542 2.602772
C 1.523658 -1.984880 3.803064
C 0.409849 -2.684413 3.554297
C 0.021218 -2.394297 2.178060
C -1.111287 -2.933860 1.552651
C -1.503925 -2.611206 0.222511
C -2.635095 -3.196862 -0.452172
C -2.688515 -2.635609 -1.672440
C -1.602752 -1.697475 -1.760573
C -1.350342 -0.873218 -2.868030
C 3.283850 2.968793 -2.531285
C 4.573945 2.616315 -2.981757
C 5.376581 3.508356 -3.656113
C 4.917169 4.777277 -3.907340
C 3.651113 5.165003 -3.493899
C 2.837792 4.270251 -2.804361
C 0.960076 5.815731 -2.313006
C -0.424839 5.910629 -1.696418
C 3.907529 -0.349924 3.608701
C 5.049383 -1.136221 3.474088
C 5.962867 -1.279924 4.503424
C 5.742509 -0.623772 5.701517
C 4.636713 0.192350 5.836369
C 3.724565 0.327919 4.797137
C 2.553330 2.431942 4.694985
C 1.334017 3.267044 5.027855
C -1.909918 -3.945201 2.294122
C -1.362362 -5.178874 2.587864
C -2.034119 -6.154967 3.262057
C -3.320208 -5.900098 3.715654
C -3.915842 -4.669136 3.441829
C -3.216038 -3.695754 2.730450
C -5.093754 -2.250594 2.063449
C -5.399584 -0.854239 1.632336
C -2.271839 -1.030478 -4.043079
C -1.935292 -1.873714 -5.093099
C -2.820730 -2.085201 -6.143213
C -4.024017 -1.412781 -6.162083
C -4.368577 -0.547854 -5.144566
C -3.493823 -0.366192 -4.066144
C -4.992256 0.992204 -2.616576
C -4.997598 1.870688 -1.387462
C 1.838837 -3.446308 -1.613749
C 2.634796 -4.373597 -2.232061
C 3.935575 -4.097037 -2.477856
C 4.447072 -2.885055 -2.048173
C 3.584338 -1.990303 -1.428907
N 0.579458 0.380519 -1.963506
N 2.411767 0.560283 0.244264
N 0.917340 -1.516084 1.628047
N -0.876239 -1.720250 -0.602558
N 1.541020 4.618933 -2.335582