13
H8 C4 O1
C -1.047388 -0.569505 -0.340404
H -1.359895 -1.494083 -0.128091
C 1.236321 0.083935 -0.184681
H -1.733836 -0.105861 -0.901110
O -0.789636 0.167987 0.857157
C 0.278766 -0.602042 -1.040027
C 0.388277 0.894634 0.655514
H 0.213326 -0.132975 -1.921838
H 0.565899 -1.548310 -1.187366
H 1.765180 -0.569505 0.359179
H 0.185281 1.762273 0.203998
H 0.838341 1.070873 1.530581
H 1.860000 0.650611 -0.722465