162
Re1 H58 C89 N10 Cl1 O3
Re 5.477058 1.973170 -2.475855
C -2.267627 -3.787192 4.246165
H 0.266734 4.029906 5.077185
C -1.930619 -2.370777 4.319629
C 0.688371 -7.979656 -3.033044
H -1.158372 2.439988 6.431860
H 2.831319 5.367457 2.226734
C 1.129655 -8.093221 -1.694970
H 2.222287 7.332773 3.669692
C 2.116499 -9.001746 -1.266784
C 2.701352 -9.790396 -2.289065
C 2.376434 -9.752541 -3.611591
C 1.311005 -8.793543 -4.031544
H -3.565788 -0.708303 7.437986
C -6.243717 -7.676814 -5.108662
H 0.653613 -1.582127 3.899677
C -6.901109 -8.197323 -3.952999
H 2.163348 -0.067919 2.595851
C -7.965026 -9.150012 -4.059503
H -3.583923 -4.276155 -4.996558
C -8.404799 -9.572729 -5.328210
H -1.303452 -4.279310 -3.976736
C -7.754963 -9.049065 -6.502210
H -0.807763 0.761741 -4.745947
C -6.689534 -8.099531 -6.379559
H -3.162285 0.840606 -5.540258
C -5.557611 -0.537954 -5.926339
C -5.779764 -0.121547 -7.246502
H -7.223004 -2.768257 -6.149820
C -6.691046 0.947862 -7.564728
H -7.446669 -5.254081 -5.850967
C -7.387730 1.578782 -6.520566
H -4.115881 -9.320361 -4.198278
C -7.197313 1.162375 -5.155928
H -1.746247 -9.411844 -3.437031
H 2.364344 -5.825064 -2.966310
C -6.286031 0.133975 -4.885417
H 2.603121 -3.326621 -3.233996
H 5.649794 1.537772 0.760246
H 4.341054 1.711275 2.719569
H 1.418304 3.547253 0.482465
H 2.785982 3.288575 -1.428894
H 3.385947 -0.093156 -1.173906
H 1.499911 -1.430706 -1.675527
H 1.528624 0.070883 -5.501610
H 3.364789 1.398970 -4.925379
N 0.789625 4.557356 4.604120
N -1.088855 4.938431 6.860790
C 1.948751 8.525211 6.935430
C 2.414215 9.828061 7.054516
N -1.782517 1.954495 6.815938
N 0.188149 1.572473 4.643135
N -2.225312 -2.181501 -4.769524
N -4.431732 -4.208331 -5.220216
H -0.325675 9.036257 4.649674
N -2.687753 -6.384375 -4.204820
C -3.857458 3.985742 9.421690
H -5.317322 4.891112 8.296345
N -0.451108 -4.349027 -3.770705
H 2.175438 11.730285 6.358721
C -5.083079 4.648208 9.185946
N 4.342566 2.372164 -0.529106
H 0.457151 11.235013 4.850706
C -5.979248 4.963668 10.258771
N 3.596010 0.782561 -3.001821
C -5.678510 4.651363 11.556020
C -4.477069 3.928959 11.827048
C -3.603569 3.581953 10.750598
H -2.110457 -4.515905 7.448640
O 4.341054 4.522024 -3.806403
H -2.553252 -5.484367 5.330976
H -2.448976 -4.181517 3.400503
H -1.918529 -1.847113 3.527533
H 0.736731 -7.522239 -1.046354
H 2.371900 -9.083766 -0.354836
H 3.384435 -10.396079 -2.028739
H 2.808650 -10.317214 -4.242301
H 1.052582 -8.724141 -4.942752
H -1.043517 7.976311 8.103129
H -6.626062 -7.903945 -3.091742
Cl 6.279833 -0.195365 -1.379910
H -2.668107 6.477876 9.282759
H -8.376085 -9.493864 -3.274312
O 7.954445 3.738106 -1.600785
H -4.354658 1.316950 8.726782
H -9.118108 -10.194185 -5.410461
O 7.073388 1.215688 -5.090298
H -8.034544 -9.332979 -7.364192
H -6.276964 -7.752525 -7.161450
H -5.314300 -0.556882 -7.951421
H -6.817990 1.222312 -8.465923
H -7.990718 2.285413 -6.717922
H -7.680912 1.575628 -4.452073
H -6.145486 -0.131011 -3.982047
C 4.693175 3.660818 -3.362258
C 1.569428 4.171863 3.506571
C 2.254023 5.348529 2.981061
C 1.917015 6.436866 3.775646
C 0.987598 5.935285 4.819909
C 0.405768 6.736553 5.876319
C -0.556896 6.257054 6.805765
C 7.049208 3.055135 -1.925997
C 6.446221 1.509381 -4.120051
H 2.329585 7.834354 7.467973
C -3.186465 0.162367 7.407493
C -2.010715 0.588238 6.585528
C -1.255092 -0.257195 5.670079
C -0.189663 0.200222 4.831085
C 0.673259 -0.635747 3.953592
H 3.112411 10.029956 7.667169
C 1.508978 0.197067 3.229577
H -6.799855 5.399003 10.063321
C 1.181038 1.600864 3.642055
H -6.258829 4.906885 12.263372
C 1.790070 2.799612 3.056136
H -4.259450 3.682900 12.717050
C -1.052585 -1.405469 -4.506145
H -2.829811 3.064599 10.933663
C -1.392615 0.017255 -4.830292
H -1.389593 -2.225665 7.607954
C -2.692287 0.061420 -5.266291
C -3.239358 -1.323450 -5.236928
C -4.581345 -1.692538 -5.587322
C -5.104237 -3.036398 -5.584068
C -6.538410 -3.370785 -5.889865
C -6.657798 -4.743036 -5.711977
C -5.380795 -5.269854 -5.283273
C -5.095169 -6.654724 -4.936628
C -3.857458 -7.159460 -4.443246
C -3.523473 -8.579030 -4.128630
C -2.205666 -8.629503 -3.717259
C -1.622325 -7.263562 -3.786702
C -0.289405 -6.885010 -3.421241
C 0.216862 -5.544305 -3.457128
C 1.675215 -5.213072 -3.190287
C 1.805183 -3.831357 -3.341402
C 0.461684 -3.285611 -3.698766
C 0.171525 -1.900742 -3.972728
C 4.785361 1.928943 0.702157
C 3.998001 2.036199 1.895153
C 2.696818 2.632419 1.850421
C 2.264602 3.121382 0.563347
C 3.100321 2.966806 -0.590105
C 3.017202 -0.061610 -2.050757
C 1.880745 -0.891270 -2.357886
C 1.320072 -0.919661 -3.659384
C 1.897369 0.007791 -4.628429
C 3.003601 0.812214 -4.271689
C 0.928660 8.229625 6.040068
C -1.214288 7.064632 7.900866
C -2.110457 6.234972 8.553430
C -2.045474 4.897421 7.908043
C -2.837367 3.742838 8.313013
C -2.716467 2.414751 7.756704
C 0.372521 9.238151 5.262328
C -3.621704 1.282250 8.123362
C 1.858076 10.837533 6.278610
C 0.837985 10.544155 5.381414
C -1.622325 -1.761939 5.572818
C -1.638948 -2.591599 6.767934
C -2.037917 -3.985932 6.663763
C -2.323543 -4.563224 5.392176