133
Ni1 H76 C52 N4
C -0.445974 -4.068558 1.707706
C 0.445974 -4.068558 -1.707706
Ni 0.000000 -0.176003 0.000000
C -5.338979 0.937864 0.901200
C 5.338979 0.937864 -0.901200
N -0.712865 -0.163746 -1.732310
N 0.712865 -0.163746 1.732310
H -1.233938 -0.222004 -6.013522
N -1.728438 -0.147857 0.717305
N 1.728438 -0.147857 -0.717305
H 0.138645 -0.949853 -5.633167
H -0.138645 -0.949853 5.633167
H -1.314814 -2.481212 -6.684230
H 1.233938 -0.222004 6.013522
H -1.046768 -2.951817 -5.177334
H 1.046768 -2.951817 5.177334
H -2.421662 -2.224724 -5.553779
H 1.314814 -2.481212 6.684230
H -3.392175 -0.044960 -5.095483
H 2.421662 -2.224724 5.553779
H 3.392175 -0.044960 5.095483
H -4.046116 0.725259 -3.856393
H 4.046116 0.725259 3.856393
H -3.810420 2.196846 -5.675654
H -2.886122 2.698472 -4.469157
H 2.886122 2.698472 4.469157
H -2.234491 1.926740 -5.709530
H 3.810420 2.196846 5.675654
H -3.681018 2.227867 -2.565670
H 3.681018 2.227867 2.565670
H -4.711611 1.770124 -1.424042
H 4.711611 1.770124 1.424042
H 2.234491 1.926740 5.709530
H -2.518713 3.577641 -0.967359
H 2.518713 3.577641 0.967359
H -3.544684 3.122925 0.166448
H 3.544684 3.122925 -0.166448
H -7.124030 0.388572 0.017627
H 7.124030 0.388572 -0.017627
H -4.124682 5.262589 -0.519110
H 4.124682 5.262589 0.519110
H -5.846187 -0.117593 -0.802360
H 5.846187 -0.117593 0.802360
H -5.293919 4.266904 -0.955351
H 5.293919 4.266904 0.955351
H -6.282918 -0.865871 0.544344
H 6.282918 -0.865871 -0.544344
H -4.834081 5.764215 -2.665747
H 4.834081 5.764215 2.665747
H -5.303162 -0.597278 3.118932
H 5.303162 -0.597278 -3.118932
H -3.313610 5.272425 -2.709640
H 3.313610 5.272425 2.709640
H -4.106196 -1.451479 3.754935
H 4.106196 -1.451479 -3.754935
H -4.487469 4.278253 -3.148447
H 4.487469 4.278253 3.148447
H -4.695436 0.303833 5.209120
H 4.695436 0.303833 -5.209120
H -5.742204 1.072539 1.797542
H 5.742204 1.072539 -1.797542
H -3.195762 0.523247 4.694065
H 3.195762 0.523247 -4.694065
H -5.305473 1.818546 0.450839
H 5.305473 1.818546 -0.450839
H -0.903502 -2.421440 4.471048
H 0.903502 -2.421440 -4.471048
H -2.319989 -1.678459 4.533723
H 2.319989 -1.678459 -4.533723
H -2.990105 -3.075899 2.624422
H 2.990105 -3.075899 -2.624422
H -2.890743 -3.817367 4.032470
H 2.890743 -3.817367 -4.032470
H -2.010349 -5.102831 2.345238
H 2.010349 -5.102831 -2.345238
H -0.942784 -4.801704 3.478073
H 0.942784 -4.801704 -3.478073
H 0.039283 -4.880390 1.457785
H -0.039283 -4.880390 -1.457785
H -4.392728 1.375935 4.060659
H 4.392728 1.375935 -4.060659
H -0.896569 -3.700851 0.917418
H 0.896569 -3.700851 -0.917418
H 0.182549 -3.406533 2.061861
H -0.182549 -3.406533 -2.061861
C -0.129633 -0.697653 -2.851741
C 0.129633 -0.697653 2.851741
C -1.007023 -0.492110 -3.987271
C 1.007023 -0.492110 3.987271
C -2.075050 0.244818 -3.546243
C 2.075050 0.244818 3.546243
C -1.900358 0.428672 -2.110654
C 1.900358 0.428672 2.110654
C -2.817955 0.482391 0.138103
C 2.817955 0.482391 -0.138103
C -3.931272 0.418080 1.069171
C 3.931272 0.418080 -1.069171
C -3.516493 -0.325658 2.142608
C 3.516493 -0.325658 -2.142608
C -2.115950 -0.636621 1.927743
C 2.115950 -0.636621 -1.927743
C -1.211755 -1.151865 2.875094
C 1.211755 -1.151865 -2.875094
C -0.827709 -0.908997 -5.428077
C 0.827709 -0.908997 5.428077
C -1.459005 -2.262554 -5.738589
C -2.834592 0.937107 -1.193114
C 2.834592 0.937107 1.193114
C 1.459005 -2.262554 5.738589
C -6.227461 0.002706 0.094226
C 6.227461 0.002706 -0.094226
C -3.233889 0.659435 -4.416852
C 3.233889 0.659435 4.416852
C -4.345358 -0.570040 3.372088
C 4.345358 -0.570040 -3.372088
C -3.022456 1.988781 -5.131965
C -4.139470 0.503575 4.427442
C 4.139470 0.503575 -4.427442
C -3.775759 2.047039 -1.596729
C 3.775759 2.047039 1.596729
C -1.680837 -2.133932 3.930404
C 1.680837 -2.133932 -3.930404
C -3.459880 3.324180 -0.798402
C 3.459880 3.324180 0.798402
C -2.359503 -3.376269 3.324833
C 2.359503 -3.376269 -3.324833
C 3.022456 1.988781 5.131965
C -4.352752 4.518095 -1.128463
C 4.352752 4.518095 1.128463
C -1.437284 -4.391627 2.725729
C 1.437284 -4.391627 -2.725729
C -4.237446 4.999293 -2.532878
C 4.237446 4.999293 2.532878