174
Zn2 H64 C98 N10
C 5.823224 1.725034 3.095017
C 6.745751 2.547320 2.226571
C 6.379292 2.781481 0.908175
C 7.250770 3.449928 0.055916
C 8.485060 3.882853 0.522629
C 8.851519 3.647331 1.841024
C 7.980041 2.980245 2.697344
C 4.847825 2.521453 3.776943
C 4.815007 3.904636 3.790248
C 0.490434 1.688277 7.530751
C 3.775797 4.186446 4.539097
Zn -3.261844 -0.037026 -4.666598
C 3.241607 3.036063 5.488272
C 0.315409 0.431704 7.834483
C 1.157717 -0.359269 6.897516
C 2.111238 2.898561 6.036351
H -4.100322 -4.357701 -1.560625
C 1.261638 -1.730199 6.909513
C 1.498651 4.284466 6.547266
H -4.831416 -6.402524 -0.742730
C 0.226074 -2.526618 7.722743
C 2.196927 5.154401 7.378817
H -6.485036 -7.576050 -1.869900
C 0.727447 -3.112020 8.881782
C 1.591632 6.321121 7.827681
C 0.114860 -3.841730 -9.709132
H -7.407563 -6.704754 -3.810905
C 0.288062 6.620629 7.449054
C 0.408391 5.752056 -6.617215
H -6.676470 -4.659932 -4.624740
C 1.458541 -3.984677 -9.385563
H -6.811385 -2.364611 -1.818328
C 1.959914 -3.397914 -8.230584
C 0.195080 4.583974 6.168639
H -7.358338 0.057319 -1.545140
C 1.117607 -2.668203 -7.399174
C 1.597102 1.750901 6.495169
C 2.065658 -2.537509 6.019195
C 2.089359 -3.950642 6.015449
C 3.205143 -4.270571 5.473735
C 2.536038 -0.227213 1.649488
C 1.750249 -0.082905 0.511035
C 0.437562 0.359550 0.623472
C 0.091159 0.656335 -1.873840
C 0.694630 0.512027 3.012293
H -5.553394 2.491503 -0.596160
H -7.006465 3.606489 0.827075
H -9.068477 4.329393 0.048635
H -9.677417 3.937309 -2.153040
H -0.229720 0.094077 8.509313
H -8.226169 2.822323 -3.580046
H -1.626273 -3.016722 -9.097015
H -5.396600 4.496845 -3.369489
H -0.218781 -4.233813 -10.484628
H -3.369229 5.022345 -4.509968
H -2.023725 -4.472058 9.941765
H -3.068405 4.954275 -7.634910
H -2.858740 -3.493212 8.011291
H -2.058366 6.902439 -8.383209
H -1.453071 -2.276120 6.623966
H -1.434839 -4.525153 -6.338115
H -0.116683 7.402072 7.748489
H -3.691931 -5.046569 -5.632283
H -1.281693 5.950820 6.361410
H -3.412985 -0.523998 -1.575865
Zn 3.261844 -0.037026 4.666598
H -0.271653 4.002657 5.613111
H -0.023701 2.411180 -7.884640
H -2.103945 -0.281669 0.324360
H -0.969930 0.953121 1.947751
H 4.100322 -4.357701 1.560625
H -0.340934 0.710791 -3.847687
H 4.831416 -6.402524 0.742730
H 6.485036 -7.576050 1.869900
H 7.407563 -6.704754 3.810905
N -5.061136 -0.496770 -3.706695
H 6.676470 -4.659932 4.624740
H 6.811385 -2.364611 1.818328
N -1.865109 0.465739 -6.042767
H 7.358338 0.057319 1.545140
N -3.099399 -2.003840 -5.474206
N -2.007317 0.069572 -2.899855
N -3.806791 1.961918 -4.522019
H 5.553394 2.491503 0.596160
H 7.006465 3.606489 -0.827075
H 9.068477 4.329393 -0.048635
H 0.229720 0.094077 -8.509313
H 9.677417 3.937309 2.153040
H 1.626273 -3.016722 9.097015
H 8.226169 2.822323 3.580046
H 5.396600 4.496845 3.369489
H 0.218781 -4.233813 10.484628
H 2.023725 -4.472058 -9.941765
H 3.369229 5.022345 4.509968
H 2.858740 -3.493212 -8.011291
H 3.068405 4.954275 7.634910
H 1.453071 -2.276120 -6.623966
H 2.058366 6.902439 8.383209
H 0.116683 7.402072 -7.748489
H 1.434839 -4.525153 6.338115
H 1.281693 5.950820 -6.361410
H 3.691931 -5.046569 5.632283
H 0.271653 4.002657 -5.613111
H 3.412985 -0.523998 1.575865
H 2.103945 -0.281669 -0.324360
H 0.023701 2.411180 7.884640
H 0.969930 0.953121 -1.947751
H 0.340934 0.710791 3.847687
C -3.595303 -3.107936 -4.486422
N 5.061136 -0.496770 3.706695
C -4.749373 -2.963627 -3.751902
C -5.316381 -4.305968 -3.175111
N 1.865109 0.465739 6.042767
C -4.762135 -4.827384 -2.008188
N 3.099399 -2.003840 5.474206
C -5.201521 -6.052644 -1.520583
N 2.007317 0.069572 2.899855
C -6.191505 -6.756488 -2.196419
C -6.745751 -6.233710 -3.359283
C -6.306365 -5.008450 -3.846887
C -5.332789 -1.896290 -3.310555
C -6.404817 -1.675743 -2.292627
C -6.734811 -0.319788 -2.118682
C -5.850571 0.348659 -3.074455
N 3.806791 1.961918 4.522019
C -5.823224 1.725034 -3.095017
C -6.745751 2.547320 -2.226571
C -6.379292 2.781481 -0.908175
C -7.250770 3.449928 -0.055916
C -8.485060 3.882853 -0.522629
C -8.851519 3.647331 -1.841024
C -7.980041 2.980245 -2.697344
C -4.847825 2.521453 -3.776943
C -4.815007 3.904636 -3.790248
C 3.595303 -3.107936 4.486422
C -0.490434 1.688277 -7.530751
C -3.775797 4.186446 -4.539097
C 4.749373 -2.963627 3.751902
C -3.241607 3.036063 -5.488272
C -0.315409 0.431704 -7.834483
C 5.316381 -4.305968 3.175111
C -1.157717 -0.359269 -6.897516
C -2.111238 2.898561 -6.036351
C 4.762135 -4.827384 2.008188
C -1.261638 -1.730199 -6.909513
C -1.498651 4.284466 -6.547266
C 5.201521 -6.052644 1.520583
C -0.226074 -2.526618 -7.722743
C -2.196927 5.154401 -7.378817
C 6.191505 -6.756488 2.196419
C -0.727447 -3.112020 -8.881782
C -1.591632 6.321121 -7.827681
C 6.745751 -6.233710 3.359283
C -0.288062 6.620629 -7.449054
C 6.306365 -5.008450 3.846887
C -0.114860 -3.841730 9.709132
C 5.332789 -1.896290 3.310555
C -0.408391 5.752056 6.617215
C -1.458541 -3.984677 9.385563
C -0.195080 4.583974 -6.168639
C 6.404817 -1.675743 2.292627
C -1.959914 -3.397914 8.230584
C -1.597102 1.750901 -6.495169
C 6.734811 -0.319788 2.118682
C -1.117607 -2.668203 7.399174
C -2.065658 -2.537509 -6.019195
C 5.850571 0.348659 3.074455
C -2.089359 -3.950642 -6.015449
C -3.205143 -4.270571 -5.473735
C -2.536038 -0.227213 -1.649488
C -1.750249 -0.082905 -0.511035
C -0.437562 0.359550 -0.623472
C -0.091159 0.656335 1.873840
C -0.694630 0.512027 -3.012293