174
Zn2 H64 C98 N10
C -5.917282 -0.329467 -2.837915
C 5.917282 -0.329467 2.837915
C -6.731319 0.435857 -1.988787
C 6.731319 0.435857 1.988787
C -6.488568 1.807510 -2.231993
C 6.488568 1.807510 2.231993
C -5.530341 1.853321 -3.218735
C 5.530341 1.853321 3.218735
C -4.853194 3.025559 -3.621271
C 4.853194 3.025559 3.621271
C -5.444557 4.290768 -3.229462
C 5.444557 4.290768 3.229462
C -6.426512 4.910572 -3.991254
C 6.426512 4.910572 3.991254
C -6.986847 6.108411 -3.564492
C 6.986847 6.108411 3.564492
C -6.565227 6.686445 -2.371909
C 6.565227 6.686445 2.371909
C -5.583272 6.066641 -1.610117
C 5.583272 6.066641 1.610117
C -5.022937 4.868803 -2.036879
C 5.022937 4.868803 2.036879
H -9.810423 -3.683145 -1.926511
C -3.789105 3.079455 -4.662483
C 3.789105 3.079455 4.662483
H -9.144227 -4.265222 0.219165
C -3.259798 4.288073 -5.144342
C 3.259798 4.288073 5.144342
C -2.336250 3.877116 -6.080800
C 2.336250 3.877116 6.080800
C -2.308872 2.541843 -6.004929
C 2.308872 2.541843 6.004929
C -1.387148 1.736098 -6.860493
C 1.387148 1.736098 6.860493
C -0.425270 2.552622 -7.731022
C 0.425270 2.552622 7.731022
C 0.910772 2.741258 -7.402417
C -0.910772 2.741258 7.402417
C 1.732110 3.495802 -8.231043
C -1.732110 3.495802 8.231043
C 1.215580 4.061710 -9.391184
C -1.215580 4.061710 9.391184
C -0.122288 3.874421 -9.721087
C 0.122288 3.874421 9.721087
C -0.941801 3.119877 -8.891163
C 0.941801 3.119877 8.891163
H -0.198946 -2.388294 -8.043924
H 0.198946 -2.388294 8.043924
H -3.150287 -4.983386 -7.367043
H 3.150287 -4.983386 7.367043
H -2.188409 -6.974843 -8.064324
H 2.188409 -6.974843 8.064324
Zn -3.373508 -0.006899 -4.619144
H 0.047455 -7.403317 -7.614915
Zn 3.373508 -0.006899 4.619144
H -0.047455 -7.403317 7.614915
H 1.319616 -5.840333 -6.467910
H -1.319616 -5.840333 6.467910
H 0.357738 -3.848875 -5.770628
H -0.357738 -3.848875 5.770628
H -0.531132 -1.170244 -3.796624
H 0.531132 -1.170244 3.796624
H -3.571907 -5.119474 -4.945612
H -0.845065 -1.313069 1.934237
H 3.571907 -5.119474 4.945612
H 0.845065 -1.313069 -1.934237
H -5.333220 -4.537397 -3.252642
H 1.983987 0.465499 -0.296949
H 5.333220 -4.537397 3.252642
H -1.983987 0.465499 0.296949
H -3.360184 0.608324 -1.565439
H 3.360184 0.608324 1.565439
H -8.346617 -2.552677 -3.326567
H 8.346617 -2.552677 3.326567
H 0.109512 -0.043818 -8.552259
H -0.109512 -0.043818 8.552259
H -7.016050 -3.719525 0.961070
H 7.016050 -3.719525 -0.961070
H -5.552243 -2.590404 -0.438986
H 5.552243 -2.590404 0.438986
H -7.333634 0.094964 -1.369470
H 7.333634 0.094964 1.369470
H -6.893762 2.531064 -1.807743
H 6.893762 2.531064 1.807743
H -6.709417 4.523868 -4.788681
H 6.709417 4.523868 4.788681
H -7.643917 6.523410 -4.075963
H 7.643917 6.523410 4.075963
H -6.939392 7.488148 -2.085953
H 6.939392 7.488148 2.085953
H -5.300366 6.453345 -0.812690
H 5.300366 6.453345 0.812690
H -4.365867 4.453803 -1.525407
H 4.365867 4.453803 1.525407
H -3.478822 5.155799 -4.893131
H 3.478822 5.155799 4.893131
N -4.086612 -1.838555 -4.506554
H -1.834321 4.416076 -6.646588
N 4.086612 -1.838555 4.506554
H 1.834321 4.416076 6.646588
H 1.255734 2.361291 -6.626139
H -1.255734 2.361291 6.626139
H 2.626456 3.621110 -8.010184
H -2.626456 3.621110 8.010184
H 1.764964 4.566985 -9.944990
H -1.764964 4.566985 9.944990
H -0.467250 4.253041 -10.495753
H 0.467250 4.253041 10.495753
H -1.836146 2.993222 -9.112022
H 1.836146 2.993222 9.112022
N -2.082548 -0.267486 -2.863770
N 2.082548 -0.267486 2.863770
H 9.810423 -3.683145 1.926511
N -1.951134 -0.519450 -6.151073
N 1.951134 -0.519450 6.151073
H 9.144227 -4.265222 -0.219165
N -5.101420 0.577334 -3.502022
N 5.101420 0.577334 3.502022
N -3.006096 1.993451 -5.123518
N 3.006096 1.993451 5.123518
C -0.600489 -1.678214 -7.600157
C 0.600489 -1.678214 7.600157
C -1.502136 -1.791396 -6.498249
C 1.502136 -1.791396 6.498249
C -2.111751 -2.952854 -6.034807
C 2.111751 -2.952854 6.034807
C -1.491184 -4.218063 -6.500133
C -0.823163 -0.841479 -2.974435
C 0.823163 -0.841479 2.974435
C 1.491184 -4.218063 6.500133
C -2.254116 -5.155853 -7.186787
C 0.001825 -0.927712 -1.859295
C -0.001825 -0.927712 1.859295
C 2.254116 -5.155853 7.186787
C -1.677354 -6.348302 -7.604287
C 0.432571 -0.437259 0.633488
C -0.432571 -0.437259 -0.633488
C 1.677354 -6.348302 7.604287
C -1.691956 0.138081 -0.522823
C -0.337661 -6.605656 -7.335134
C 1.691956 0.138081 0.522823
C 0.337661 -6.605656 7.335134
C -2.516944 0.222967 -1.637964
C 0.423445 -5.669213 -6.648165
C 2.516944 0.222967 1.637964
C -0.423445 -5.669213 6.648165
C -1.275811 0.388698 -6.903818
C -0.153316 -4.475416 -6.230665
C 1.275811 0.388698 6.903818
C 0.153316 -4.475416 6.230665
C -3.263449 -3.047172 -5.103425
C -0.428921 -0.395489 -7.879467
C 3.263449 -3.047172 5.103425
C 0.428921 -0.395489 7.879467
C -3.821958 -4.265222 -4.676977
C 3.821958 -4.265222 4.676977
C -4.838592 -3.933762 -3.756739
C 4.838592 -3.933762 3.756739
C -4.979132 -2.478570 -3.724507
C 4.979132 -2.478570 3.724507
C -5.911807 -1.707857 -2.907350
C 5.911807 -1.707857 2.907350
C -6.804327 -2.459706 -2.020548
C 6.804327 -2.459706 2.020548
C -8.080139 -2.787124 -2.465879
C 8.080139 -2.787124 2.465879
C -8.956232 -3.463519 -1.626222
C 8.956232 -3.463519 1.626222
C -8.558340 -3.812496 -0.340920
C 8.558340 -3.812496 0.340920
C -7.282528 -3.486425 0.104411
C 7.282528 -3.486425 -0.104411
C -6.406435 -2.808683 -0.735246
C 6.406435 -2.808683 0.735246