142
Er1 Co1 P3 H63 C61 N4 O9
Er 0.025610 0.676572 -0.013263
C -1.126067 -5.339213 0.167688
Co 0.054251 -3.550150 0.021569
C -0.513432 -5.300517 -1.090378
P -1.146616 -2.340672 -1.506110
N -0.920571 1.942159 -1.750224
P -0.977082 -2.308210 1.574816
H -3.359551 1.916362 -3.908191
H -1.036162 2.049649 -4.971128
N -1.779801 1.886264 0.955874
O -1.070839 -0.831083 -1.338786
O -0.766449 -0.835382 1.493667
H -3.833476 2.447362 3.311676
H -4.814719 2.574200 1.112478
O -0.187207 -2.778802 -2.850696
H -5.387539 0.523291 -0.851104
H -7.586346 0.882308 -1.495283
O -2.717376 -2.783101 -1.368514
O -2.614628 -2.686360 1.540821
H -8.181000 2.868723 -2.536649
O -0.084459 -2.796000 3.063759
C 4.676626 2.266779 1.537640
C 5.006704 3.468517 2.151510
H -4.376756 4.137105 -2.285260
H -1.727142 0.076133 4.986696
C 6.309035 3.694246 2.582275
C 7.282572 2.720387 2.394094
C 6.952494 1.518649 1.777855
C 5.650163 1.290770 1.349459
C 1.559509 2.066848 -4.727669
H -1.322572 4.072611 4.844433
C 1.360435 3.227740 -5.466091
C 1.708494 3.266436 -6.810647
C 2.256911 2.142091 -7.417120
C 2.455985 0.981199 -6.681066
C 2.107926 0.944652 -5.336510
H -0.876903 -1.359934 -3.902508
H -0.560953 -1.392181 -5.648274
C 3.537408 -2.142461 2.072651
H -1.156891 -2.808899 -5.332380
C 4.629105 -3.077624 2.352964
H 0.381760 -2.643364 -5.593880
C 3.280538 -1.731849 -2.164783
H -4.000442 -1.632958 -0.771870
H -2.325649 0.218020 7.223796
H -3.482849 -1.349185 -2.201413
C 4.573878 -1.837189 -2.797291
H -2.423260 2.286127 8.270201
C 0.872382 -5.231723 -0.894769
H -5.477444 -1.639408 -2.231667
H -1.922363 4.212348 7.079505
C 1.116408 -5.229574 0.485389
H -5.363137 -3.015280 -1.487457
H -4.794170 -2.860494 -2.940027
H -3.747425 -2.533724 3.400273
H -2.862508 -1.235245 3.154958
H -4.809582 -0.988018 2.629075
H -4.678578 -2.213404 1.659111
N 1.863900 1.854017 -0.917191
P 1.626295 -2.413336 -0.123706
H -3.809073 -0.929974 1.422599
N 0.917334 1.826070 1.880625
H 0.018289 -1.269642 3.484221
H 3.827671 2.445212 -3.388991
H 5.077343 2.361370 -1.210884
H 3.351177 2.180787 3.850499
H -0.410684 -2.634765 5.356898
H 1.302639 1.937860 4.999583
O 1.568499 -0.917075 -0.126455
O 2.580567 -2.834696 1.297347
O 2.495800 -2.692810 -1.647518
H -0.255277 -5.345663 2.111857
H -2.090613 -5.380060 0.336921
H 4.355539 4.119907 2.278319
H -0.973229 -5.309116 -1.956564
H 8.153361 2.873023 2.680592
C -2.168959 2.028151 -2.031822
H 7.603660 0.867259 1.653415
C -2.527292 1.963657 -3.497857
H 5.429255 0.486745 0.938859
C -1.237805 1.993754 -4.065411
H 0.993111 3.980170 -5.061324
C -0.315642 1.922811 -3.013362
H 1.576206 4.042514 -7.306199
H -6.576847 4.496122 -2.931468
H 2.490663 2.167888 -8.317100
H 2.823309 0.228769 -7.085833
H 2.240214 0.166424 -4.840959
H 0.628355 -1.600711 -4.091259
C 0.334239 1.877665 3.088272
C -1.063133 1.972256 3.300657
C -1.995571 1.978706 2.272632
C -3.407072 2.301176 2.498217
C -3.934940 2.337722 1.294776
C -3.019198 1.980856 0.352211
C -3.254234 2.062548 -1.023214
C -4.664450 2.294726 -1.503662
C -5.625144 1.318717 -1.266771
C -6.942887 1.533697 -1.653211
H 1.327042 -2.099465 3.278640
C -7.299936 2.724686 -2.276542
C -6.337958 3.700696 -2.513772
C -5.020215 3.485716 -2.127332
C -1.466419 2.060398 4.692938
C -1.766957 0.905956 5.406882
H 3.140544 -1.837189 2.904366
H 3.873908 -1.372832 1.590765
H 5.312379 -2.630465 2.854703
H 4.992576 -3.397944 1.525323
C -1.524215 3.298683 5.321524
H 4.290037 -3.819305 2.861577
H 3.411542 -1.101958 -1.439186
H 2.723130 -1.278241 -2.813399
H 4.911662 -0.957921 -2.981136
H 4.487827 -2.325194 -3.619999
H 5.180091 -2.299396 -2.213650
H 1.554372 -5.229574 -1.600422
H 1.997472 -5.253221 0.913630
H 0.790183 -1.637258 5.501843
C -0.225737 -2.056469 -4.095623
H 1.062466 -3.152867 5.205035
C -0.392703 -2.232752 -5.214308
C -3.789808 -2.060768 -1.616020
C 1.068887 1.998054 -3.274457
C -4.926458 -2.417635 -2.099970
C -2.125291 0.989798 6.747044
C 2.086092 2.079746 -2.297214
C -3.398081 -1.918882 2.730287
C -2.183086 2.230232 7.373263
C 3.452641 2.305475 -2.548828
C -4.207222 -1.499671 2.079413
C -1.882549 3.384675 6.661687
C 4.159033 2.288277 -1.342759
C 0.416438 -2.144611 3.613616
C 3.060914 2.116293 -0.295241
C 0.467812 -2.415485 5.039866
C 3.285675 2.051799 1.063950
C 2.350669 1.922811 2.066064
C 2.527909 2.047499 3.440162
C 1.406671 1.952908 4.074625
H 6.528659 4.498271 2.993214
C -0.120421 -5.294068 1.143245