94
Fe1 H32 C51 N6 Cl1 O3
Fe -0.995955 -0.021753 -0.294482
H -2.053804 -1.640743 4.325574
H -1.987625 1.151155 4.528076
H -0.945820 4.865624 1.189458
H -0.249946 5.002109 -1.291192
H -0.621948 1.387845 -5.170704
H -0.505635 -1.214011 -5.189355
H 0.271458 -4.959578 -1.589616
H -0.542735 -5.094336 0.800441
H 0.839989 -3.670744 3.281090
H 0.947278 -5.348302 5.130253
H -1.492292 -6.244957 5.513941
H -3.380376 -5.769851 4.456135
H -3.252030 -3.893612 2.825461
H 0.341647 3.267539 3.763365
H -0.085503 5.537684 5.239498
H -1.718902 6.166552 5.769733
H -4.051182 5.259531 4.568044
H 1.620089 4.919182 -6.137917
H -3.608991 3.891224 2.886744
H -2.306484 4.245394 -3.342857
H 2.283877 -2.350812 -4.424644
H -2.203206 5.988603 -5.098762
H 2.644849 -3.907433 -6.295123
H -0.132630 6.104357 -6.335090
H 1.598030 -5.569442 -6.692133
H 1.444617 3.302092 -4.192832
H 4.468760 -0.908215 -0.369275
H 5.373195 -1.246837 2.138020
H 2.143499 0.959385 3.366354
H -0.813464 -6.004812 -5.343896
H -1.132322 -4.702157 -3.510720
H 1.133780 1.056134 1.130839
C -0.609916 -2.900207 0.713045
C -1.039071 -2.544309 1.996268
C -1.347903 -1.253747 2.417526
C -1.719904 -0.871935 3.766828
C -1.845242 0.461819 3.798270
C -1.528389 0.980117 2.503589
C -1.472238 2.317326 2.152141
C -1.137336 2.809709 0.878244
C -0.956850 4.205658 0.539586
C -0.609916 4.259216 -0.770016
C -0.593872 2.913368 -1.267478
C -0.293062 2.569564 -2.609054
C -0.088512 1.284185 -3.121170
C -0.293062 0.841904 -4.439565
C -0.154690 -0.531586 -4.478733
C 0.161161 -0.985960 -3.167799
C 0.240374 -2.333535 -2.730555
C -0.006290 -2.780999 -1.408696
C 0.168180 -4.152761 -0.994100
C -0.224879 -4.216684 0.310972
C -1.107255 -3.637918 3.017305
C 0.026799 -4.144123 3.603495
C -0.026344 -5.170353 4.514754
C -1.201509 -5.712838 4.842487
C -2.386700 -5.239459 4.290936
C -2.312500 -4.211501 3.387670
C -1.665759 3.347011 3.230198
C -0.583845 3.813479 3.941087
C -0.750294 4.796518 4.881655
C -1.991636 5.316544 5.125191
C -3.064525 4.867352 4.466260
C -2.926153 3.851488 3.510504
C -0.262981 3.659718 -3.618633
C -1.360938 4.461352 -3.810743
C 1.670224 -3.085067 -4.583981
C -1.352916 5.439207 -4.824319
C 1.933934 -3.902250 -5.669765
C -0.228890 5.589514 -5.590629
C 0.860043 4.803429 -5.396920
C 0.829962 3.835939 -4.437433
C 0.539179 -3.297569 -3.807279
C 2.155531 -0.149773 -1.066042
C 2.737097 -0.068573 0.292054
C 3.951367 -0.669798 0.518004
C 1.068604 -4.985493 -5.940744
C 4.548976 -0.649066 1.799628
C 0.002734 -5.197995 -5.152052
C -0.271003 -4.366991 -4.104637
C 3.881178 0.033359 2.782562
C 2.705011 0.712330 2.584856
C 2.114420 0.646679 1.333074
N -0.495608 -2.045880 -0.351156
N 4.480792 0.040270 4.136395
N -1.262673 -0.107618 1.664272
N -0.939804 2.054203 -0.228856
N 0.231350 0.145312 -2.389499
N 0.822943 0.215455 -1.111871
O 2.814305 -0.500488 -2.027127
Cl -2.918131 -0.195383 -1.427081
O 4.228112 1.021581 4.842487
O 5.161626 -0.880573 4.474253