77
Bi1 H24 C44 N4 Cl4
Bi -1.085049 -0.004802 -0.261489
H 1.637473 -0.959722 -4.824382
H 1.414394 1.513282 -4.777285
H 0.534502 5.066725 -0.890289
H 0.104325 4.946676 1.511017
H -0.930875 0.962773 4.969270
H -1.139708 -1.484506 4.815357
H 0.342055 -4.976209 1.109108
H 1.021004 -4.842441 -1.274983
H 2.706539 4.216094 -2.327435
H 3.214812 6.016825 -3.770240
H -0.193611 5.317113 -5.842539
H -0.706768 3.536961 -4.364085
H -2.520444 3.350028 3.676492
H -2.684696 5.059865 5.322977
H 1.292801 5.147329 5.653770
H 1.494291 3.523241 3.964314
H 0.610241 -3.237218 4.545495
H 0.268008 -4.988214 6.033779
H -2.684185 -6.392785 3.626473
H -2.347733 -4.564614 2.174703
H 3.249998 -3.310962 -2.945644
H 3.977800 -4.813286 -4.557911
H 0.181953 -5.175147 -5.854286
H -0.504810 -3.614514 -4.271423
C 0.829281 -0.944287 -2.856609
C 1.305212 -0.441797 -4.101215
C 1.201089 0.914754 -4.070967
C 0.712440 1.276615 -2.776519
C 0.616184 2.605726 -2.245955
C 0.378560 2.924713 -0.910118
C 0.384465 4.274404 -0.386008
C 0.145733 4.212664 0.910627
C -0.044022 2.784084 1.254416
C -0.390010 2.285024 2.519311
C -0.595441 0.943908 2.860996
C -0.847865 0.443134 4.179686
C -0.949098 -0.894552 4.095476
C -0.715518 -1.282138 2.718375
C -0.576800 -2.554655 2.253200
C -0.116206 -2.892506 0.963301
C 0.320622 -4.199323 0.562590
C 0.699727 -4.123863 -0.741984
C 0.527787 -2.765598 -1.167945
C 0.828387 -2.283688 -2.451521
C 0.913279 3.720464 -3.199063
C 2.107833 4.449332 -3.025553
C 2.412122 5.519480 -3.884535
C 1.540360 5.838467 -4.890067
C 0.382459 5.107885 -5.115709
C 0.087518 4.041166 -4.231519
C -0.494237 3.303724 3.628358
C -1.734452 3.722179 4.059780
C -1.838600 4.704864 5.073967
C -0.703644 5.126750 5.676456
C 0.516704 4.764888 5.260548
C 0.634392 3.816503 4.239176
C -0.797459 -3.717413 3.209709
C -0.067680 -3.873476 4.355990
C -0.260870 -4.909325 5.247945
C -1.234714 -5.804546 4.963352
C -2.023410 -5.734231 3.814059
C -1.805977 -4.660653 2.950389
C 1.305978 -3.286952 -3.458473
C 2.618476 -3.683113 -3.550147
C 3.055865 -4.595483 -4.478130
C 2.121157 -5.180292 -5.284605
C 0.809274 -4.799566 -5.249091
C 0.410224 -3.863186 -4.316113
N 0.459865 0.132722 -2.050730
N 0.118867 2.027777 0.118355
N -0.523314 -0.119380 1.968547
N 0.031374 -2.038445 -0.099501
Cl -0.834738 6.275788 6.993163
Cl -1.472751 -7.177560 6.038128
Cl 2.626796 -6.411649 -6.436555
Cl 1.852027 7.233948 -5.891797