77
Bi1 H24 C44 N4 Cl4
Bi -0.867230 -0.481990 -0.221700
H 2.566915 -4.040692 1.871578
H 1.435554 -3.098842 3.825583
H -1.529795 1.154800 4.758207
H -2.165370 3.129113 3.460197
H -1.450650 4.665683 -1.604484
H -0.478860 3.640878 -3.603173
H 2.012142 -0.915229 -4.663237
H 2.804299 -2.791273 -3.318540
H 1.499838 -5.376895 -0.352765
H 2.818478 -7.240177 -0.777064
H 4.528055 -2.983982 -1.395392
H -1.999862 -2.386711 4.491579
H -2.222163 -3.083527 6.686388
H 1.258755 -0.358797 5.496368
H -3.825156 4.059478 -0.143009
H -1.259910 0.754067 -5.245716
H -1.179227 1.478960 -7.433400
H -0.778775 5.080454 2.233987
H -1.826839 7.073910 2.741600
H -4.891596 6.051658 0.356102
C 2.010041 -2.778511 -0.597991
C 1.566875 -2.569210 0.716155
C 1.976710 -3.320904 1.870266
C 1.356863 -2.801482 2.948646
C 0.558290 -1.711590 2.490231
C -0.205062 -0.862904 3.325323
C -0.778298 0.349505 2.942146
H 5.871386 -4.833225 -1.789127
C -1.396392 1.279870 3.845259
C -1.746770 2.367210 3.128942
C -1.360218 2.142595 1.760136
C -1.531499 3.041054 0.698204
C -1.084041 2.825373 -0.610800
C -1.117963 3.799129 -1.669001
C -0.582438 3.236316 -2.771616
C -0.203153 1.895008 -2.421208
C 0.442649 0.992721 -3.279552
C 1.022071 -0.218413 -2.908201
C 1.827773 -1.061994 -3.763106
C 2.263778 -2.097009 -3.020011
H 2.518524 2.844516 -6.869567
C 1.748352 -1.942586 -1.689951
H 2.421692 2.169396 -4.658268
C 2.876818 -3.987091 -0.836487
C 2.373902 -5.265864 -0.647659
C 3.162965 -6.385109 -0.896630
C 4.471098 -6.207715 -1.322959
C 4.991903 -4.944256 -1.507530
C 4.183568 -3.839050 -1.265083
C -0.359785 -1.291714 4.760422
C -1.381597 -2.108495 5.128860
C -1.514876 -2.530924 6.444354
C 0.543699 -0.906295 5.729482
C -2.191574 4.347904 1.006252
C -3.424670 4.660578 0.441589
C 0.559135 1.407492 -4.711705
C -0.500674 1.187982 -5.558561
C -0.448084 1.609135 -6.873575
C -1.608670 5.270611 1.859773
C 0.677296 2.212787 -7.351596
C 1.754536 2.429745 -6.539161
C -2.229984 6.463877 2.165332
C 1.691596 2.025183 -5.217338
C -3.459581 6.739541 1.605517
C -4.067070 5.852567 0.735834
N 0.699540 -1.571206 1.126796
N -0.774718 0.882966 1.676051
N -0.510748 1.671670 -1.094755
N 0.973811 -0.790159 -1.650144
Cl 5.464411 -7.594583 -1.662208
Cl 0.743385 2.724934 -9.016925
Cl -4.283340 8.216510 2.022400
H 1.005018 -1.040298 7.697413
C -0.623992 -2.141677 7.367084
C 0.404184 -1.321067 7.045660
Cl -0.775735 -2.673733 9.024648