85
Co1 H44 C36 N4
Co 0.000000 0.000000 -0.000000
H -0.658452 -2.779786 -3.261050
H 0.658452 2.779786 3.261050
H -0.641635 3.361917 -2.712094
H 0.641635 -3.361917 2.712094
H 0.955985 -5.351991 1.790096
H -0.955985 5.351991 -1.790096
H 0.773584 -6.202624 0.448725
H -0.773584 6.202624 -0.448725
H -1.385466 -5.426450 2.148016
H 1.385466 5.426450 -2.148016
H -0.776172 -6.906596 2.072751
H 0.776172 6.906596 -2.072751
H -1.554930 -6.297389 0.814491
H 1.554930 6.297389 -0.814491
H 0.082792 -6.013093 -1.800173
H -0.082792 6.013093 1.800173
H 0.041396 -4.898471 -2.950797
H -0.041396 4.898471 2.950797
H -2.249604 -5.731053 -1.444157
H 2.249604 5.731053 1.444157
H -1.970182 -6.141703 -2.965647
H 1.970182 6.141703 2.965647
H -2.291000 -4.618687 -2.594781
H 2.291000 4.618687 2.594781
H -0.521329 -1.870489 -5.397197
H 0.521329 1.870489 5.397197
H -1.002555 -0.557311 -6.174576
H 1.002555 0.557311 6.174576
H -2.761877 -2.179605 -4.597063
H 2.761877 2.179605 4.597063
H -2.698490 -2.233757 -6.195406
H 2.698490 2.233757 6.195406
H -3.222406 -0.913810 -5.460308
H 3.222406 0.913810 5.460308
H -1.412632 2.915165 -4.753928
H 1.412632 -2.915165 4.753928
H -1.776139 1.728341 -5.764372
H 1.776139 -1.728341 5.764372
H 0.858963 2.754967 -5.322082
H -0.858963 -2.754967 5.322082
H 0.011643 2.926447 -6.670086
H -0.011643 -2.926447 6.670086
H 0.562724 1.484659 -6.250059
H -0.562724 -1.484659 6.250059
C 0.253549 -2.911781 0.804112
C -0.253549 2.911781 -0.804112
C 0.166877 -4.252938 0.247200
C -0.166877 4.252938 -0.247200
C -0.117719 -4.111466 -1.068158
C 0.117719 4.111466 1.068158
C -0.226383 -2.692241 -1.320048
C 0.226383 2.692241 1.320048
C -0.512273 -2.167647 -2.549090
C 0.512273 2.167647 2.549090
C -0.605414 -0.821752 -2.840473
C 0.605414 0.821752 2.840473
C -0.891304 -0.291742 -4.149520
C 0.891304 0.291742 4.149520
C -0.891304 1.060922 -4.028757
C 0.891304 -1.060922 4.028757
C -0.604120 1.351761 -2.644505
C 0.604120 -1.351761 2.644505
C -0.513567 2.629290 -2.118599
C 0.513567 -2.629290 2.118599
C 0.345396 -5.525051 1.029348
C -0.345396 5.525051 -1.029348
C -0.958572 -6.088454 1.564646
C 0.958572 6.088454 -1.564646
C -0.360920 -5.175547 -2.088800
C 0.360920 5.175547 2.088800
C -1.851169 -5.440664 -2.291751
C 1.851169 5.440664 2.291751
C -1.157789 -1.112140 -5.370565
C 1.157789 1.112140 5.370565
C -2.589826 -1.659298 -5.409138
C 2.589826 1.659298 5.409138
C -1.085347 2.065435 -5.139740
C 1.085347 -2.065435 5.139740
C 0.201805 2.331455 -5.914538
C -0.201805 -2.331455 5.914538
N 0.005174 -1.960968 -0.173628
N -0.005174 1.960968 0.173628
N -0.438537 0.186146 -1.911112
N 0.438537 -0.186146 1.911112