20
H4 C12 N4
C 0.251612 -1.297525 0.505066
C 0.363001 1.121624 0.790451
C 0.708095 2.205154 1.571621
C 0.494553 3.557904 1.147195
C 1.282876 2.028997 2.879809
N 0.322816 4.646547 0.822894
N 1.720183 1.873038 3.928962
C -0.601147 0.228825 -1.250202
C -0.251612 1.297525 -0.505066
H 1.012370 -0.365608 2.095508
H 0.411011 -2.173195 0.835337
C -0.363001 -1.121624 -0.790451
C -0.708095 -2.205154 -1.571621
C -0.494553 -3.557904 -1.147195
C -1.282876 -2.028997 -2.879809
N -0.322816 -4.646547 -0.822894
N -1.720183 -1.873038 -3.928962
H -1.012370 0.365608 -2.095508
H -0.411011 2.173195 -0.835337
C 0.601147 -0.228825 1.250202