85
Cu1 H44 C36 N4
H -0.512530 -4.213442 -0.943581
H -1.828047 1.084041 -3.832080
H -1.811127 3.221442 -4.433443
H -1.339487 4.683874 -3.982883
H -3.800617 3.456658 -3.163238
H -3.689933 4.665977 -4.202736
H -3.323337 4.898637 -2.662042
H -0.743768 5.693771 -0.328273
H -1.159008 5.903420 -1.858894
Cu -0.000000 -0.000000 -0.000000
H -1.938731 -4.701771 -2.744879
H 0.512530 4.213442 0.943581
H -2.192528 -4.146967 -4.223605
H 1.828047 -1.084041 3.832080
H -0.418766 -5.680987 -4.311589
H 1.811127 -3.221442 4.433443
H 1.339487 -4.683874 3.982883
H -2.963790 -2.045360 -5.133481
H 3.800617 -3.456658 3.163238
H -2.555599 -0.498557 -5.119997
H 3.689933 -4.665978 4.202736
H -0.834712 -2.605277 -6.006348
H 3.323337 -4.898637 2.662042
H 0.743768 -5.693771 0.328273
H -1.568609 -1.562144 -6.974318
H 1.159008 -5.903420 1.858894
H -0.416651 -1.061031 -5.983573
C -1.032533 1.878407 -2.170306
C -1.168596 3.289450 -2.483578
H 1.938731 4.701771 2.744879
C -0.633507 3.972089 -1.430643
H 2.192528 4.146967 4.223605
C -0.182523 2.982135 -0.481630
H 0.418766 5.680987 4.311589
C -0.391553 -3.292774 -0.743626
C -0.803480 -2.381310 -1.698823
H 2.963790 2.045360 5.133481
C -1.374736 -2.747430 -2.974975
H 2.555599 0.498556 5.119997
C -1.657438 -1.576973 -3.624185
H 0.834712 2.605277 6.006348
C -1.268141 -0.506482 -2.731077
H 1.568609 1.562144 6.974318
C -1.422746 0.848057 -3.005772
C -1.836859 3.878003 -3.693232
H 0.416651 1.061030 5.983573
C -3.294432 4.259207 -3.404251
C -0.508582 5.457787 -1.260697
C 1.032533 -1.878407 2.170306
C -1.550773 -4.151058 -3.470263
C 1.168596 -3.289450 2.483578
C 0.633507 -3.972089 1.430643
C -0.234058 -4.794324 -3.937168
C 0.182523 -2.982135 0.481630
C -2.206910 -1.419224 -5.012695
C 0.391553 3.292774 0.743626
C -1.163591 -1.685121 -6.090302
C 0.803480 2.381310 1.698823
C 1.374736 2.747430 2.974975
C 1.657438 1.576973 3.624185
C 1.268141 0.506482 2.731077
C 1.422746 -0.848057 3.005772
C 1.836859 -3.878003 3.693232
N -0.431597 1.712733 -0.940946
C 3.294432 -4.259207 3.404251
N -0.736577 -1.013732 -1.566181
C 0.508582 -5.457787 1.260697
C 1.550773 4.151058 3.470263
C 0.234058 4.794324 3.937168
C 2.206910 1.419224 5.012695
C 1.163591 1.685121 6.090302
N 0.431597 -1.712733 0.940946
N 0.736577 1.013732 1.566181
H -1.544639 -5.548039 0.983800
H -0.917196 -6.956781 1.413432
H -1.115299 -5.801152 2.504555
H -0.375056 4.883297 3.174765
H -0.180478 4.228782 4.623261
C -0.893226 -5.989070 1.568171
H 1.544639 5.548039 -0.983800
H 0.917196 6.956781 -1.413432
H 1.115299 5.801152 -2.504555
H 0.375056 -4.883297 -3.174765
H 0.180478 -4.228782 -4.623261
C 0.893226 5.989070 -1.568171