79
Sn1 H24 C44 N8 Cl2
H -3.135676 -3.675855 -1.851975
Cl 1.301617 0.071520 -2.044051
H -4.215868 -1.585371 -2.511262
Sn 0.000000 0.000000 0.000000
H 3.135676 3.675855 1.851975
H 4.215868 1.585371 2.511262
C -2.919070 0.812055 -1.717003
C -2.130899 1.865493 -1.214750
C -1.944913 -6.846596 0.247882
H -0.175779 -5.122654 -2.342547
C -1.661398 -5.472807 0.393236
C -2.412429 3.270572 -1.424995
H -0.674766 -7.412800 -2.459350
C -1.438839 3.993227 -0.807238
H 0.175779 5.122654 2.342547
C -0.493316 3.048560 -0.256966
H 0.674766 7.412800 2.459350
C -1.566704 -2.479377 -1.007101
C -4.177594 1.139858 -2.476221
C -2.802262 -2.801219 -1.685855
Cl -1.301617 -0.071520 2.044051
C -5.301730 1.494480 -1.728683
H 3.147017 -3.625194 1.909079
C -3.393391 -1.658381 -2.038860
C 1.566704 2.479377 1.007101
H 1.389224 -4.939383 0.748836
C -6.478318 1.869963 -2.394459
C 2.802262 2.801219 1.685855
C -2.608054 -0.582594 -1.604093
C -6.561955 1.813342 -3.711737
H 5.270544 -1.481070 0.779984
C 3.393391 1.658381 2.038860
C -5.460499 1.436370 -4.438510
H 7.223962 -2.170945 1.889611
C 2.608054 0.582594 1.604093
C -4.278241 1.120488 -3.802583
H 5.511532 -1.393159 5.385912
C -7.810838 2.178395 -4.350259
H 3.518421 -0.883576 4.323005
C -0.680720 -3.364443 -0.417895
C 0.680720 3.364443 0.417895
N -0.957714 1.771622 -0.572334
N -8.774789 2.442126 -4.857703
C 2.919070 -0.812055 1.717003
C 2.130899 -1.865493 1.214750
C -0.981812 -4.812732 -0.585312
C 2.412429 -3.270572 1.424995
C -0.643579 -5.532407 -1.624858
C 1.438839 -3.993227 0.807238
C -0.963951 -6.921096 -1.700131
C 0.981812 4.812732 0.585312
C 0.493316 -3.048560 0.256966
C 0.643579 5.532407 1.624858
C 0.963951 6.921096 1.700131
C 4.177594 -1.139858 2.476221
N -1.494975 -1.101117 -0.960379
C 5.301731 -1.494480 1.728683
C 6.478318 -1.869963 2.394459
N 1.494975 1.101117 0.960379
C 6.561955 -1.813342 3.711737
H 2.398537 7.289129 -0.956486
N -1.624541 -7.536471 -0.790366
C 5.460499 -1.436370 4.438510
H 1.942078 5.009414 -1.171922
C 4.278241 -1.120488 3.802583
N 1.624541 7.536471 0.790366
C 7.810838 -2.178395 4.350259
N 0.957714 -1.771622 0.572334
N 8.774789 -2.442126 4.857703
H -2.398537 -7.289129 0.956486
H -1.942078 -5.009414 1.171922
H -3.147016 3.625194 -1.909079
H -1.389223 4.939383 -0.748836
H -5.270544 1.481070 -0.779984
C 1.944913 6.846596 -0.247882
H -7.223962 2.170945 -1.889611
C 1.661398 5.472807 -0.393236
H -5.511532 1.393159 -5.385911
H -3.518421 0.883576 -4.323005