18
H12 C6
H -1.289659 0.825276 0.998876
C 0.612350 1.132326 0.461991
H -1.617592 -0.730444 -0.586671
C 0.499916 0.923532 -0.826858
H -0.247770 0.534602 2.167271
H -0.783706 -2.089652 -0.653907
H 0.567377 -1.283134 0.903110
C 0.378113 -0.411112 -1.217168
H -0.284311 1.410718 -1.151856
H -0.922374 -1.487834 1.404512
C -0.742480 -1.139844 -0.426043
H 1.494021 0.825276 0.762729
C -0.352709 -0.959708 0.806173
H 1.286954 1.300180 -1.271101
H 1.230737 -0.873734 -1.067267
C -0.408926 0.448628 1.204440
H 0.176668 -0.452052 -2.175443
H 0.553322 2.094416 0.639545