91
Fe1 H44 C38 N8
H 0.759351 -2.892682 4.140253
Fe 0.021503 0.030189 -0.033336
H -1.671098 -1.938780 5.230120
H -1.518375 -3.293894 4.429030
H 0.435167 -4.264172 2.518581
H -0.802545 -3.117852 5.830122
H 0.326480 -4.984716 0.175697
H 0.403310 -0.493598 5.548964
H 1.407721 -1.668576 5.889135
H 1.534209 -2.225360 -4.253624
H 1.670067 -0.743332 4.631222
H 2.406510 0.034528 -4.459851
H 0.781838 4.566586 -2.051796
H -1.125793 4.898200 -0.597851
C 2.929328 -0.523484 0.555355
C 3.882207 -0.241407 1.455778
H 0.176568 -3.715576 -3.461254
H 1.333702 -5.615192 -3.402415
H 2.226616 -4.378804 -2.973682
H 1.687869 -5.385928 -1.876578
H 2.470223 3.493958 -2.912336
C 3.855035 2.372202 -3.383311
H 2.324995 3.555368 -5.221978
H 1.380550 2.290322 -5.109522
H 0.977661 3.641342 -4.392975
H -2.874142 4.267724 0.470878
H -4.260828 2.830730 2.460731
H -4.865161 3.882888 1.442543
H -4.388254 2.462270 0.926243
H -1.523060 5.127464 2.189287
H -3.047478 5.450890 2.477126
N 3.364073 0.718226 2.258887
H -2.324152 4.280006 3.263338
H -1.494951 0.337484 -2.769628
H -2.961278 -1.017630 0.620728
H -4.744295 -1.124074 -1.045374
H 1.548264 1.627094 2.243215
H -3.795164 -0.207018 -3.085040
C -1.494014 0.421821 3.839668
H -1.141721 -5.328612 -3.237540
H -1.014296 -5.324518 -1.658575
H -1.714197 -4.112694 -2.397342
C -1.626124 1.572235 1.918264
C -2.066491 1.493220 3.276902
C -0.734147 -0.263106 2.836391
C -0.122319 -1.515870 2.938518
C 0.144712 -2.279401 1.809549
C 0.320859 -3.704522 1.772634
C 0.294624 -4.099184 0.484025
C 0.207488 -2.917246 -0.334475
C 0.392067 -2.853789 -1.717115
C 0.803388 -1.660797 -2.334489
C 1.448947 -1.542071 -3.613516
C 0.174694 -2.110728 4.308688
C 1.907116 -0.296676 -3.735700
C -1.068639 -2.666693 5.014631
C 1.512660 0.464808 -2.573051
C 0.987030 -1.168698 5.172252
C 1.569813 1.843257 -2.407218
C 0.750919 2.512217 -1.508504
C 0.368643 3.900902 -1.535815
C -0.653570 4.092501 -0.719525
C -0.913105 2.839737 -0.051670
H 3.770710 1.090780 2.930783
C -1.770414 2.657554 1.034324
C 0.250587 -4.109828 -2.555713
H 3.007095 -1.156826 -0.133229
C 1.483614 -4.945413 -2.716263
C 2.460853 2.624802 -3.388802
H 4.735769 -0.628700 1.517858
C 1.718789 3.068182 -4.642499
C -2.808555 3.737961 1.305203
C -4.208359 3.176673 1.557228
C -2.385991 4.742628 2.413221
C -2.086167 -0.003546 -2.122422
C -2.888196 -0.751110 -0.276861
C -3.871057 -0.804332 -1.181842
C 2.121677 0.997846 1.845120
H 4.085525 1.848170 -2.602066
H 4.098642 1.885016 -4.184838
H 4.335691 3.215566 -3.358792
C -1.004926 -4.771828 -2.454180
N -0.813788 0.472586 1.653358
N 0.083810 -1.830698 0.506892
N 0.838992 -0.422362 -1.733467
N -0.029561 1.899755 -0.554349
N -1.770414 -0.252052 -0.855355
N -3.363230 -0.307730 -2.336743
N 1.820916 0.253557 0.791920
H -2.654896 2.089716 3.701311
H -1.577403 0.161442 4.738747