164
Zn2 H66 C86 N8 O2
H 5.296383 -0.192760 8.368524
H 6.165886 0.699344 7.418389
H -5.809135 5.417945 4.274051
H -6.359881 5.034549 1.909946
Zn 1.915545 -2.656174 -2.610115
H 3.981936 -0.140546 -2.405616
H 4.732713 -0.601516 1.048065
H 1.800059 -0.570188 0.924167
Zn -1.826639 2.722345 2.490650
C -0.509246 2.639893 6.600944
C -1.695592 3.252431 6.775588
H 4.885899 0.494965 -1.293295
H 3.324189 0.542703 -1.156042
H -1.697069 -1.759162 0.944359
H -7.103791 2.535764 0.399723
H -1.493385 -4.205734 0.951430
H -8.845240 3.128013 -1.005453
H -6.416351 5.644700 -2.943605
H 1.926491 -7.611540 -1.305228
H -4.694198 5.088254 -1.522352
H 2.523387 0.083225 3.176440
H -8.976441 5.771504 -3.180068
H -9.785931 4.512415 -2.711331
H 4.040404 -1.447374 -7.138939
H -8.801603 4.403513 -3.926607
C -4.206670 6.141474 8.318614
H -4.298688 2.067335 -1.987523
C -5.456592 5.676028 8.679405
H -2.355077 0.582982 -2.196392
C -6.102349 4.755580 7.899130
C -5.485500 4.255823 6.759037
H 1.474535 2.188172 -4.224788
H 0.303078 2.150877 -2.054938
H 4.814413 -2.161952 0.930551
H 5.065329 2.110598 5.734955
H 3.211003 2.579027 4.446727
H 5.874922 -1.263881 0.202690
H -1.040567 -7.232620 -1.618885
H -1.993433 -8.995942 -0.467590
H -0.315445 -7.721935 2.908779
C 1.828603 0.541659 6.529994
H 0.599610 -5.922809 1.788573
C 2.940065 0.297599 7.328279
C 4.161960 0.893876 7.059472
H -1.295905 -10.541459 1.817527
H 3.632227 -7.459376 -3.066297
H -2.720641 -9.889537 1.821017
H 4.777432 -3.761174 -6.764467
H 3.183498 -7.208751 -5.675254
C 5.366937 0.666524 7.948441
C -4.210723 4.690239 6.389566
C -3.587942 5.649176 7.180645
H 0.861443 0.675475 -6.932324
H 1.167293 2.343320 -8.496235
H 4.928331 2.855012 -7.225969
C -5.325271 4.900435 3.671115
H 4.638663 1.169264 -5.680187
C -5.627293 4.691582 2.367581
H 2.620908 3.826181 -9.727989
H 4.151078 3.867952 -9.391147
H 3.147344 4.760056 -8.583353
C 4.092600 -1.287750 -0.735097
H -1.897438 5.507453 3.516803
H -2.190889 6.802346 2.685021
H -0.897442 6.714329 3.566706
H 4.529017 -8.840793 -6.606067
H 0.233263 6.360770 0.297947
H 6.836403 -8.591661 -6.584351
H 0.453697 7.214086 1.592883
H -0.888827 7.336415 0.795333
H 7.771156 -6.697060 -5.653907
H 6.430822 -5.053083 -4.725644
C 4.068983 0.019077 -1.462647
C 0.126163 0.709488 1.229042
C 1.358984 0.013409 1.497598
C 1.753458 0.368758 2.740698
C 0.763771 1.269067 3.261895
C 0.719962 1.717655 4.590698
C -0.370534 2.382108 5.181689
C -2.292305 3.417127 5.470480
C -3.509098 4.077403 5.215553
C -0.073598 -0.420559 -0.944682
C -4.119307 4.175564 3.949006
C -0.228375 -1.769754 -0.599706
C -1.135954 -2.268318 0.405475
C -4.600229 3.840205 1.824768
C -1.016354 -3.613485 0.416718
C -4.577418 3.364466 0.503498
C -0.006536 -3.958391 -0.561327
C -3.588019 2.523531 -0.035754
C 0.495684 -5.245974 -0.795762
C -3.643197 1.924121 -1.344118
C 1.530557 -5.560597 -1.689402
C -2.570307 1.116305 -1.465414
C 2.137441 -6.856385 -1.805504
C -1.819634 1.242811 -0.236482
C 3.071974 -6.773888 -2.779338
C -0.622483 0.578059 0.041518
C 3.039877 -5.427229 -3.289565
C 3.780443 -4.956115 -4.393032
C 4.954776 -1.332504 0.467266
C 3.700904 -3.663759 -4.922206
C 4.250830 -3.249035 -6.194358
C -5.704999 3.747712 -0.403787
C 3.848203 -1.972491 -6.395748
C -6.959827 3.167696 -0.266745
C 3.067331 -1.574774 -5.251897
C -8.009789 3.521852 -1.119487
C 2.489809 -0.305093 -5.080378
C -7.826069 4.445582 -2.129907
C -6.563280 5.022615 -2.267983
C -5.524882 4.683078 -1.415213
C -8.950160 4.816745 -3.074199
C 1.700710 0.081584 -3.981935
C 1.309066 1.440625 -3.696181
C 0.650686 1.416756 -2.507550
C 0.590955 0.042797 -2.081475
C 1.904454 1.408999 5.449716
C 4.247455 1.726009 5.954881
C 3.133108 1.997518 5.168908
C -0.114778 -6.380796 -0.040035
C -0.895360 -7.317653 -0.705126
C -1.461794 -8.385791 -0.009828
C -1.248366 -8.554515 1.341339
C -0.470715 -7.624967 1.997373
C 0.087347 -6.542508 1.321846
C -1.801084 -9.762733 2.064463
C 2.718318 0.735893 -6.128874
C 1.682593 1.107653 -6.987918
C 1.865167 2.117609 -7.925799
C 3.078404 2.796235 -8.023581
C 4.107518 2.419850 -7.172261
C 3.933431 1.404672 -6.239046
C 3.266407 3.914198 -9.022622
N 0.435129 -2.817901 -1.182213
N 2.113515 -4.694451 -2.582030
N 2.996405 -2.616656 -4.365790
C -1.501426 6.219048 3.009040
N 1.251533 -0.750250 -2.993120
C -0.192984 6.735215 1.071221
C -0.772187 5.659618 1.878899
O 3.443109 -2.216104 -1.114951
N -0.209078 1.484484 2.308653
N -1.473479 2.856653 4.516677
C 4.663265 -5.960701 -5.080084
N -3.676753 3.552882 2.800782
C 4.107332 -7.103877 -5.664108
N -2.463848 2.098216 0.617785
C 4.913434 -8.084445 -6.225341
C 6.291729 -7.935114 -6.216739
C 6.847435 -6.801487 -5.655886
C 6.041860 -5.814504 -5.094331
O -0.758461 4.469152 1.653732
H -5.860843 5.990801 9.455428
H -6.953628 4.463185 8.131696
H -5.926185 3.626279 6.237316
H 0.105032 2.423878 7.265157
H -2.063725 3.520360 7.587445
H 2.862998 -0.276301 8.056000
H 1.023640 0.117537 6.722658
H 5.400764 1.349774 8.621700
H -2.744470 5.962456 6.943996
H -3.781830 6.785936 8.837643
H -1.736011 -9.625487 3.012856