80
Re1 H28 C45 N4 O2
N -0.520610 -0.092104 1.964254
O -1.566694 -1.328350 -0.532837
C 2.868793 -2.076574 -3.250513
N -1.266580 1.765156 -0.060006
C 2.250792 -3.134727 -3.887472
N 0.312263 0.392449 -1.943724
C 2.925724 -3.850570 -4.866706
C 4.224153 -3.519825 -5.193439
C 4.846476 -2.461672 -4.566039
C 4.181031 -1.743516 -3.592636
N 2.936652 -2.558814 1.054489
O 4.282082 -2.882620 -0.820042
H 4.680355 -4.012473 -5.836566
H 5.715978 -2.231539 -4.800919
Re -0.461473 -0.152089 -0.108945
H -0.567286 -1.585082 4.772518
H 1.515131 -0.336115 -4.800142
H -2.179371 0.264083 4.653583
H -3.020452 4.154384 1.137964
H -2.463059 4.479347 -1.208660
H 0.017042 1.576655 -4.883050
H 0.637549 -4.503965 2.692007
H -1.461515 3.185278 4.384582
H -2.770523 4.374110 5.865546
H 3.295786 -4.244920 2.013406
H 3.901346 -2.984388 2.721413
H -6.069492 3.169088 3.968226
H 4.586662 -3.568396 1.439118
H -4.773071 2.040392 2.439213
H 2.334903 -1.622089 4.889657
H -2.686313 2.166445 -4.523745
H 2.935322 -3.194862 6.472932
H -3.343989 3.686022 -6.099023
H 2.453034 -5.430282 6.146674
H -2.491584 5.840490 -6.077127
H -1.048012 6.497354 -4.397955
H 1.249381 -6.072113 4.270288
H -0.358163 4.953492 -2.803636
C 1.345834 -1.121345 0.169568
C 1.760885 -1.841815 1.334631
C 1.088000 -1.912358 2.528284
C 0.006598 -1.055428 2.793047
C -0.699585 -1.016108 4.048056
C -1.591744 0.003881 3.980421
H 1.380021 -3.368330 -3.660306
H 2.501245 -4.553692 -5.304639
H 4.606778 -1.036925 -3.165674
C -1.467824 0.602923 2.702243
C -2.114518 1.753592 2.277522
C -1.974583 2.322566 1.011204
C 3.261543 -2.391129 -0.276378
C 2.228238 -1.523790 -0.868344
C -2.531750 3.570377 0.605377
C -2.220762 3.747314 -0.688722
C 1.076446 0.047827 -4.075989
C -1.463783 2.638277 -1.129126
C 1.172723 -0.368496 -2.718422
C -1.028993 2.415082 -2.454867
C -0.252192 1.339582 -2.816349
C 0.238960 1.093258 -4.120829
C 1.444944 -2.901124 3.607236
C -2.981226 2.485625 3.250984
C -2.386483 3.187591 4.289958
C 2.097105 -1.312160 -2.227608
C -3.173861 3.888401 5.181537
C 3.747276 -3.408806 1.875452
C -4.540153 3.880306 5.072950
C -5.143115 3.179496 4.046084
C 2.121782 -2.518338 4.754422
C -4.365836 2.498346 3.138239
C -1.442065 3.398065 -3.472701
C 2.484644 -3.464315 5.704725
C 2.184525 -4.796547 5.521287
C -2.350884 3.033783 -4.495689
C 1.478519 -5.179332 4.392630
C -2.739769 3.938128 -5.438487
C 1.111805 -4.237981 3.444967
C -2.237776 5.234510 -5.418424
C -1.365451 5.623077 -4.426478
C -0.961678 4.694447 -3.463772