82
Re1 H29 C45 N4 O3
H -5.269838 1.932290 1.191176
H -4.158715 6.442752 1.769226
H -2.516500 4.914373 1.108302
H -2.859010 4.112844 -1.324939
C -3.713885 3.267755 1.112014
C -5.035616 2.842099 1.324435
Re 0.059861 0.173409 0.329026
H 1.702121 -4.763706 0.685910
H -0.091458 -4.590705 2.380118
H 3.165631 -3.379701 -2.953073
H 4.743841 -5.012628 -3.425853
H 5.556130 -5.362363 0.518203
H 3.994695 -3.667206 0.984360
C -4.383021 5.526720 1.661480
C -3.402650 4.613177 1.268592
H -3.787801 1.611181 3.265663
H 1.567628 2.773645 -7.055353
H 1.092110 1.352302 -5.269129
H -4.685481 -4.254661 4.670071
H -6.885813 3.463159 1.895109
H 5.290980 -0.076509 -1.952934
H 4.914659 -1.341032 -1.047126
H 4.966866 -1.485406 -2.640166
H -1.336315 3.729505 -3.204481
C 2.342137 -2.367834 -0.659379
C 1.371939 -2.683965 0.312258
C 1.209691 -3.980847 0.903823
C 0.227833 -3.885012 1.828772
C -0.243021 -2.544568 1.829923
C -1.284790 -2.056682 2.618246
C -1.872059 -0.788425 2.476991
H 1.466795 4.447644 -2.710217
H 2.167703 5.820448 -4.484387
H 2.136403 4.984071 -6.681801
C -2.490289 1.195481 1.647948
C -2.656729 2.273313 0.780120
C 3.400680 -3.379701 -0.952528
C 3.651664 -3.780465 -2.241460
C 4.588691 -4.745037 -2.527070
C 5.305544 -5.327514 -1.482182
C 5.076855 -4.949153 -0.190187
C 4.135278 -3.952221 0.090642
H -6.347788 5.725858 2.161783
C -3.175932 1.003812 2.865333
C 1.211709 2.786091 -3.808441
C 1.581009 3.113424 -6.167508
C 1.267498 2.272068 -5.111268
C 2.982566 0.645364 -2.573258
C 1.542753 0.790983 -2.344098
C 1.164543 -0.342855 -1.554965
C 2.313101 -1.177988 -1.356333
C 4.741768 -0.886749 -1.897276
C -1.935664 2.447558 -0.378495
C -5.998258 3.758131 1.729177
C -2.190537 3.439511 -1.371778
C -1.334330 3.261532 -2.377993
C -0.414058 2.245931 -1.990424
C 0.769006 1.865081 -2.680421
N 0.467699 -1.820206 0.901102
H 5.958791 -5.990890 -1.670542
N -1.651718 0.091513 1.420295
N 3.396622 -0.540748 -1.972976
N -0.821609 1.744354 -0.771103
O 1.173380 1.008790 1.254216
O -0.182701 -0.761044 -1.458058
O 3.777012 1.402086 -3.139112
C 1.517202 4.092931 -3.590261
H -3.116456 -0.602978 4.177507
C 1.907269 4.923085 -4.651049
C 1.908837 4.420263 -5.951646
H -3.798482 -2.900526 3.007103
H -3.307717 -5.184384 6.289187
H -1.048068 -4.647957 6.318395
C -5.681347 5.104798 1.893427
H -0.123817 -3.278888 4.676246
C -2.802703 -0.213416 3.370291
C -1.865366 -2.957778 3.665648
C -3.229766 -3.257729 3.679346
C -3.754159 -4.066725 4.662226
C -2.945757 -4.604396 5.629857
C -1.605449 -4.295733 5.634078
C -1.052326 -3.479270 4.661501