258
Zn2 H134 C104 N10 O8
C -4.970276 -13.298113 -0.058208
C -1.620135 -8.808915 -3.301430
C 4.817573 9.384877 3.286489
C 9.461960 4.170903 -0.661909
C 4.476786 10.837183 3.022911
C 4.886476 11.309803 1.640712
N -1.845464 -4.553960 0.142089
N 1.845464 4.553959 -0.142089
C 9.934965 5.092718 2.940096
N -4.104342 -3.246332 1.327157
C 4.545689 12.770377 1.412624
C 10.035525 4.676593 4.392412
C 4.970276 13.298113 0.058208
N 4.104342 3.246332 -1.327157
N -5.918148 -5.180904 0.026395
C 1.620135 8.808915 3.301430
C 10.968499 3.486087 4.491190
N -3.672306 -6.567071 -1.054111
N 5.918148 5.180904 -0.026395
N 3.672306 6.567071 1.054111
N 1.610824 1.466086 3.849909
N -1.610824 -1.466086 -3.849909
O 3.880875 0.358254 6.534126
O -3.880875 -0.358254 -6.534126
O 6.312939 -0.435416 4.751303
O -6.312939 0.435416 -4.751303
H -6.562477 -7.811315 -1.757740
O 6.214241 2.006222 3.284049
O -6.214241 -2.006222 -3.284049
Zn -3.868584 -4.866467 0.072412
O 3.985159 3.559116 1.884229
O -3.985159 -3.559116 -1.884229
Zn 3.868584 4.866467 -0.072412
H -7.307367 -2.766823 1.731164
H 7.307367 2.766823 -1.731164
H -0.486040 -6.726908 -1.903942
H 0.486040 6.726908 1.903942
H 2.391096 -4.902568 -0.714233
H -2.391096 4.902568 0.714233
H 1.685313 -4.643523 -2.127873
H -1.685313 4.643523 2.127873
H 6.562477 7.811315 1.757740
H 1.569855 -6.076539 -1.425338
H -1.569855 6.076539 1.425338
H 2.176940 -2.837096 -0.002568
H -2.176940 2.837096 0.002568
H 1.724419 -2.808160 1.531547
H -1.724419 2.808160 -1.531547
H 1.152717 -1.718241 0.508148
H -1.152717 1.718241 -0.508148
H -0.236502 -2.579429 3.783349
H 0.236502 2.579429 -3.783349
H 1.061468 -0.981065 4.739397
H -1.061468 0.981065 -4.739397
H 0.260711 1.477109 1.601492
H -0.260711 -1.477109 -1.601492
H -1.093125 -0.157081 0.708501
H 1.093125 0.157081 -0.708501
H 2.353851 2.168815 5.623139
H -2.353851 -2.168815 -5.623139
H 1.558681 0.788159 5.781806
H -1.558681 -0.788159 -5.781806
H 3.355728 -0.333452 4.725607
H -3.355728 0.333452 -4.725607
H 4.160208 1.058227 4.673252
H -4.160208 -1.058227 -4.673252
H 4.776604 -1.441283 6.259118
H -4.776604 1.441283 -6.259118
H -5.136014 0.764734 -7.665158
H 5.136014 -0.764735 7.665158
H 6.305490 0.949373 6.179192
H -7.069002 0.405103 -6.590323
H -6.305490 -0.949373 -6.179192
H 7.069002 -0.405103 6.590323
H 7.357647 -0.359632 3.071908
H -7.357647 0.359632 -3.071908
H 8.245928 -0.202551 4.386269
H -8.245928 0.202551 -4.386269
H 7.687260 1.982798 4.596281
H -7.687260 -1.982798 -4.596281
H 8.158403 1.743043 3.083144
H -8.158403 -1.743044 -3.083144
H 6.620206 3.472308 2.059488
H -6.620206 -3.472308 -2.059488
H 6.754286 3.855364 3.606703
H -6.754286 -3.855364 -3.606703
H 4.426506 3.683127 3.782897
H -4.426506 -3.683127 -3.782897
H 4.955378 4.906702 2.912212
H -4.955378 -4.906702 -2.912212
H 3.819421 1.668637 2.519832
H -3.819421 -1.668637 -2.519832
H -10.156569 -4.852964 0.771665
H 2.880860 2.008978 1.264529
H -2.880860 -2.008978 -1.264529
H -9.731982 -3.538447 -0.036204
H 2.320331 3.368965 3.732447
H -2.320331 -3.368966 -3.732447
H -9.339053 -3.691394 1.507322
H 1.279348 3.012089 2.569384
H -1.279348 -3.012089 -2.569384
H -9.923791 -6.748954 -0.758360
H -9.819507 -7.136144 -3.112055
H -3.798937 -0.067517 4.220436
H 3.798937 0.067517 -4.220436
H -2.810096 0.261801 3.006909
H 2.810096 -0.261801 -3.006909
H -2.400407 -0.835007 4.098363
H 2.400407 0.835007 -4.098363
H -5.892077 -0.505689 4.143502
H 5.892077 0.505689 -4.143502
H -6.985202 -1.463330 3.473217
H -10.847454 -5.121654 -2.559042
H 6.985202 1.463330 -3.473217
H -9.430302 -4.396879 -2.450747
H -10.387485 -5.426170 -4.935461
H -6.495437 -0.147435 2.705053
H 6.495437 0.147435 -2.705053
H -10.936841 -3.119566 -5.398143
H -8.761764 -7.754821 -1.192630
H -11.884713 -3.771312 -4.286104
H -10.691028 -2.799893 -3.849278
H -8.389319 -6.429281 -3.136713
H 8.389319 6.429281 3.136713
H 8.761764 7.754821 1.192630
H 10.156569 4.852964 -0.771665
H -9.141657 -4.434082 -4.737659
H 9.731982 3.538447 0.036204
H 9.141657 4.434082 4.737659
H -4.661147 -9.200238 -4.244893
H 9.339053 3.691394 -1.507322
H -5.785930 -9.259488 -3.115652
H 9.923791 6.748954 0.758360
H -3.500981 -10.962572 -3.127509
H -4.927445 -11.400745 -3.700565
H -5.860419 -11.181659 -1.529758
H -4.426506 -10.758643 -0.959667
H 10.847454 5.121654 2.559042
H -4.983311 -13.311892 -2.116762
H 4.661147 9.200238 4.244893
H 9.430302 4.396879 2.450747
H -3.568021 -12.887499 -1.509090
H 5.785930 9.259488 3.115652
H 9.819507 7.136144 3.112055
H -4.489822 -14.128987 0.133791
H 3.500981 10.962572 3.127509
H 10.387485 5.426170 4.935461
H -5.934908 -13.471728 -0.062755
H 4.927445 11.400745 3.700565
H -4.761707 -12.632587 0.630657
H 5.860419 11.181658 1.529758
H 10.691028 2.799893 3.849278
H -2.042860 -9.427592 -3.931647
H 10.936841 3.119566 5.398143
H 4.426506 10.758643 0.959667
H -1.007463 -9.302203 -2.718449
H 4.983311 13.311892 2.116762
H 11.884713 3.771312 4.286104
H -1.121059 -8.126854 -3.798254
H 3.568021 12.887499 1.509090
H 4.489822 14.128987 -0.133791
H 5.934908 13.471728 0.062755
H 4.761707 12.632587 -0.630657
C -0.955321 -5.270468 -0.636427
C 0.955321 5.270467 0.636427
H 2.042860 9.427592 3.931647
C 0.363692 -4.664192 -0.563586
C -0.363692 4.664191 0.563586
H 1.007463 9.302203 2.718449
C 0.283058 -3.559116 0.286563
C -0.283058 3.559116 -0.286563
H 1.121059 8.126854 3.798254
C -1.145268 -3.487465 0.723938
C 1.145268 3.487465 -0.723938
C -1.791459 -2.562894 1.552609
C 1.791459 2.562894 -1.552609
C -3.091292 -2.444395 1.874943
C 3.091292 2.444395 -1.874943
C -3.804524 -1.511556 2.771119
C 3.804524 1.511556 -2.771119
C -5.125771 -1.665881 2.644159
C 5.125771 1.665881 -2.644159
C -5.359481 -2.790248 1.771882
C 5.359481 2.790247 -1.771882
C -6.558753 -3.254600 1.411809
C 6.558753 3.254600 -1.411809
C -6.845535 -4.376210 0.617447
C 6.845535 4.376210 -0.617447
C -8.171997 -4.829540 0.268976
C -5.977739 -7.181615 -1.353508
C 8.171997 4.829539 -0.268976
C -8.052256 -5.964929 -0.506244
C -4.618315 -7.421369 -1.577128
C 8.052256 5.964929 0.506244
C -4.063373 -8.369365 -2.479487
C -6.609033 -6.189527 -0.651435
C 6.609033 6.189527 0.651435
C -2.676016 -8.144767 -2.469347
C -2.486069 -6.984575 -1.604489
C 5.977739 7.181615 1.353508
C 4.618315 7.421369 1.577128
C -1.219757 -6.356253 -1.427264
C 1.219757 6.356253 1.427264
C 4.063373 8.369365 2.479487
C 1.610824 -5.110631 -1.269523
C -1.610824 5.110631 1.269523
C 2.676016 8.144767 2.469347
C 1.433912 -2.651080 0.609130
C -1.433912 2.651080 -0.609130
C 2.486069 6.984575 1.604489
C -0.869659 -1.499155 2.186412
C 0.869659 1.499155 -2.186412
C -0.158289 -1.733398 3.358269
C 0.158289 1.733398 -3.358269
C 0.635018 -0.797804 3.910144
C -0.635018 0.797804 -3.910144
C 0.854761 0.458841 3.276108
C -0.854761 -0.458841 -3.276108
C 0.158289 0.654502 2.066377
C -0.158289 -0.654503 -2.066377
C -0.661090 -0.315539 1.539079
C 0.661090 0.315539 -1.539079
C 2.201149 1.281447 5.211921
C -2.201149 -1.281447 -5.211921
C 3.476772 0.541515 5.170724
C -3.476772 -0.541515 -5.170724
C 5.000071 -0.584230 6.700720
C -5.000071 0.584230 -6.700720
C -9.461960 -4.170903 0.661909
C 6.285006 -0.038581 6.109270
C -6.285006 0.038581 -6.109270
C 7.396754 0.075784 3.959558
C -7.396754 -0.075785 -3.959558
C 7.454482 1.532225 3.746702
C -7.454482 -1.532225 -3.746702
C -9.934965 -5.092718 -2.940096
C 6.206792 3.356564 2.949860
C -6.206792 -3.356564 -2.949860
C -10.035525 -4.676593 -4.392412
C 4.864129 3.920125 2.927249
C -4.864129 -3.920126 -2.927249
C -10.968499 -3.486087 -4.491190
C 3.230959 2.358965 2.122407
C -3.230959 -2.358965 -2.122407
C 2.044722 2.664859 3.093342
C -2.044722 -2.664859 -3.093342
C -3.147158 -0.446440 3.595383
C 3.147158 0.446440 -3.595383
C -6.219828 -0.876344 3.298021
C 6.219828 0.876344 -3.298021
C -9.057857 -6.810960 -1.231429
C 9.057857 6.810960 1.231429
C -9.270151 -6.430659 -2.684863
C 9.270151 6.430659 2.684863
C -4.817573 -9.384877 -3.286489
C -4.476786 -10.837184 -3.022911
C -4.886476 -11.309803 -1.640712
C -4.545689 -12.770377 -1.412624