92
H30 Ru1 C47 N5 O5 F4
H -4.147939 2.010303 3.074055
H -6.271287 2.539553 3.872052
H -5.783440 0.611033 -0.345800
C 3.111314 2.124899 -1.113430
C 3.560605 0.954819 -1.633956
C 2.491528 -0.013211 -1.531661
C 2.578309 -1.347645 -1.914453
C 1.564590 -2.296073 -1.780681
H -7.920965 1.079969 0.463382
C 1.695753 -3.696851 -2.087494
H -9.686709 0.853794 1.882404
H -10.475428 2.047999 2.598679
H -9.677494 2.317902 1.236763
Ru -0.427342 -0.269995 -0.610274
C -2.374099 1.744925 0.671116
C -2.473602 3.135148 1.048395
C -1.244630 3.696063 0.847520
C -0.387040 2.669227 0.304867
C 0.949147 2.869769 -0.079464
C 1.755969 1.901739 -0.676291
C 3.892343 -1.830152 -2.469664
C 0.536779 -4.301493 -1.736025
C 4.983416 -2.024662 -1.650303
C -0.328969 -3.289736 -1.190202
C 6.185232 -2.505662 -2.173061
C -1.610636 -3.517419 -0.659444
C 6.308250 -2.783103 -3.513717
C -2.449191 -2.531295 -0.143651
C 5.220800 -2.600655 -4.364408
C -3.759531 -2.771041 0.408360
C 4.021826 -2.127195 -3.826893
C -4.263342 -1.573820 0.796864
C 7.636646 -3.585271 -5.323455
C -3.271926 -0.571110 0.494146
C -3.400877 0.791973 0.782160
C 1.524657 4.246422 0.165257
C 2.143925 4.557036 1.357122
C 2.653669 5.826633 1.585766
C 2.542581 6.794663 0.655291
C 1.970929 6.521745 -0.537827
C 1.483341 5.212945 -0.781455
C 1.439498 -2.679063 1.724355
C 1.512538 -3.871760 2.385699
C -4.742440 1.239800 1.281395
C -4.909770 1.823332 2.539338
C -6.174137 2.132438 3.018240
C -5.881220 0.987991 0.519475
C 0.321826 -1.836183 1.823243
O 7.528874 -3.262595 -3.926732
C 0.478085 -4.319587 3.193434
C -0.611973 -3.488770 3.329106
C -0.691973 -2.282502 2.678986
F 2.488305 -2.284010 0.969940
H 1.837431 9.321794 0.167521
F 2.628762 -4.622662 2.234114
H 3.316742 9.891756 0.389531
H 3.025754 8.861905 -0.800751
C -7.307796 1.847457 2.244771
N -1.097968 1.497640 0.219104
C -7.157931 1.275988 0.995415
N 1.409131 0.598970 -0.953995
N 0.322324 -2.077437 -1.237092
C -9.679046 1.812777 2.076728
N -2.187115 -1.184798 -0.060548
N -1.089809 0.087814 -2.176909
O 0.268384 -0.666103 1.222742
O -1.625030 0.225027 -3.192821
F -1.749581 -1.490286 2.888819
O -8.506076 2.135454 2.829175
H 0.519646 -5.159451 3.632643
C 2.793224 9.109190 0.117709
O 3.076182 8.040135 0.972462
F -1.634246 -3.841603 4.141338
H 3.598553 2.937622 -1.049979
H 4.423754 0.799512 -1.999341
H 2.456488 -4.119045 -2.468022
H 4.916212 -1.831660 -0.722391
H -3.249461 3.575436 1.373019
H 6.926575 -2.641367 -1.595490
H -0.999241 4.594732 1.030784
H 5.293895 -2.792150 -5.290661
H 3.274879 -2.003553 -4.399932
H 7.476206 -2.780088 -5.858530
H 8.534844 -3.929058 -5.511235
H 0.332778 -5.224288 -1.832448
H 6.972276 -4.268321 -5.553010
H -4.190190 -3.613920 0.487351
H -5.112791 -1.423036 1.196336
H 2.221633 3.890573 2.029490
H 3.087364 6.015113 2.409711
H 1.897761 7.195747 -1.203578
H 1.116229 5.009387 -1.633211