109
Fe1 H42 C62 N4
Fe -0.826213 -3.284382 -9.596123
N 2.146843 2.343276 3.864240
N 0.861071 0.827122 1.692611
N -1.216527 -0.084013 3.509300
N 0.031003 1.442142 5.633509
H 6.971770 2.467231 -0.512186
H 6.292614 4.095371 -2.015533
H 4.137752 4.941413 -1.898765
H 2.631857 4.108488 -0.338776
H 2.462198 1.216203 -1.078859
H 0.363658 -3.207484 -3.767526
H -0.301031 -4.174858 -5.745299
H -2.034290 -0.733302 -6.869351
H -1.329259 0.243910 -4.895521
C 1.714543 5.192274 7.480007
C 2.161453 6.051434 8.465839
H -4.010007 -0.998920 -2.290902
C 3.227968 5.716952 9.256705
H 4.115002 4.406898 5.228663
H 4.673210 3.967480 2.864479
H 5.490303 1.644143 1.099618
H -0.800797 -5.166827 -7.655027
H -1.998786 -5.704621 -9.807071
H -3.358686 -3.702648 -10.462632
H -0.796428 -3.163214 0.290219
H -1.865608 -4.299469 -1.453419
H -2.979333 -1.869556 -8.754843
H 0.839317 -1.261259 -8.934402
H -3.439814 -3.199286 -2.769268
H 1.794833 -3.599353 -8.995270
H 0.920494 -4.747085 -11.077262
H -2.964898 0.129137 -0.543629
H -0.588226 -3.135341 -12.287855
H -3.295982 -1.985969 2.075161
H -0.623036 -0.961209 -10.985073
H -3.790990 -1.658046 4.466700
H -4.570010 0.686607 5.774343
H -6.319324 0.094705 7.179639
H -5.947208 -1.277655 9.015768
H -3.824395 -2.000726 9.465622
H -2.027251 -1.444896 8.068967
H -1.578162 1.181771 8.426407
H 0.339097 2.732849 8.581716
H 4.602020 4.275729 9.603270
H 3.850835 2.809911 7.955478
H -0.436682 0.563635 3.580156
H 1.345204 1.727763 3.796042
H 0.977601 5.439857 6.935842
H 1.722543 6.884359 8.596416
H 3.528146 6.312133 9.933631
C 6.083503 2.801713 -0.475614
C 5.686308 3.767447 -1.361886
C 4.411879 4.257693 -1.298595
C 3.517978 3.764168 -0.365485
C 0.322841 -0.375373 -1.793086
C -0.008915 -0.787081 -2.867257
C -0.411627 -1.370785 -4.115776
C -0.121672 -2.689365 -4.399018
C -0.521004 -3.264871 -5.578686
C -1.232182 -2.563770 -6.528176
C -1.535154 -1.246502 -6.245125
C -1.119192 -0.667717 -5.060692
C 2.502633 3.049623 4.996965
C 3.643497 3.821555 4.647186
C 3.948824 3.587089 3.345636
C 2.988193 2.663821 2.825437
C 2.892245 2.231454 1.503142
C 3.892729 2.775807 0.530732
C 5.200027 2.304909 0.482132
C 1.901884 1.368851 0.993961
C 1.847050 0.971736 -0.396371
C 0.756093 0.187835 -0.544254
C 0.134789 0.096017 0.786298
C -1.026720 -0.630498 1.089018
C -1.741170 -1.388329 0.005184
C -1.440022 -2.713959 -0.245478
C -2.079215 -3.389482 -1.277789
C -3.019217 -2.745112 -2.049257
C -3.348709 -1.439977 -1.772237
C -2.719781 -0.767734 -0.740054
C -1.627366 -0.706412 2.348502
C -1.708579 -3.251754 -7.747658
C -2.792242 -1.449815 2.676968
C -1.377730 -4.579844 -8.129829
C -3.066406 -1.269457 3.990857
C -2.049052 -4.884812 -9.330374
C -2.081641 -0.396033 4.535991
C -2.801294 -3.766594 -9.697002
C -2.006378 0.065520 5.852162
C -2.596040 -2.738554 -8.737979
C -3.125922 -0.331596 6.763530
C 0.676216 -1.913826 -9.605329
C -4.402732 0.125858 6.522901
C 1.209420 -3.218961 -9.640217
C -5.442159 -0.225021 7.360684
C 0.717793 -3.860052 -10.802812
C -5.227575 -1.028433 8.450121
C -0.119002 -2.961541 -11.480477
C -3.979694 -1.458013 8.701875
C -0.143510 -1.746585 -10.749879
C -2.899999 -1.126810 7.873131
C -1.002929 0.915169 6.354872
C -0.974585 1.409678 7.728446
C 0.064126 2.245883 7.813497
C 0.689353 2.266706 6.507419
C 1.819578 3.040933 6.212971
C 2.339204 3.970760 7.283740
C 3.858157 4.513473 9.063573
C 3.410333 3.642836 8.079365