13
H8 C4 O1
O 1.183304 0.076270 0.123176
H 0.229407 1.792905 -0.277645
C -0.781576 -0.892511 -0.069812
H -1.479505 -1.260724 -0.648775
C 0.431972 -0.737608 -0.770010
H 0.293860 -0.290673 -1.631032
C -1.098314 0.452101 0.335957
H -1.682070 0.887608 -0.319706
C 0.177845 1.078063 0.390389
H -1.536591 0.459720 1.211824
H 0.870249 -1.601004 -0.920937
H -0.667403 -1.477843 0.707087
H 0.323324 1.470401 1.276153