108
Fe1 H41 C62 N4
Fe -0.655245 -3.082083 -9.688939
H 6.809029 2.798731 -0.400510
H 6.103655 4.408835 -1.906567
H 3.907351 5.159780 -1.851216
H 2.264908 1.382102 -1.109274
H -0.261636 -4.186038 -5.718217
H 0.275290 -3.184232 -3.707538
H -3.570064 -3.025189 -2.876765
H 4.091238 4.244874 5.310249
H 4.524600 4.013688 2.896431
H 5.314050 1.877267 1.126540
N 2.014688 2.344557 3.862536
H -3.121145 -3.746620 -10.585187
H -1.531376 -5.614144 -10.041849
H -0.965221 -3.056341 0.209497
H -0.399872 -5.074710 -7.850301
H -2.026010 -4.161443 -1.558102
H -4.319817 -3.018630 8.474562
H 3.622741 2.054345 8.131271
H 4.654825 3.275860 9.819141
H 4.124852 5.507379 10.122607
H 2.387907 4.213721 -0.364453
H -1.899246 -0.751040 -7.010816
H -4.151237 -0.831381 -2.364649
H -2.947122 -1.993869 -8.763277
N 0.682584 0.925305 1.662611
H -0.632177 -0.516574 -10.572871
N -1.330125 -0.107818 3.501646
H -0.653838 -2.366063 -12.306588
N -0.008276 1.297990 5.660959
H -3.125498 0.258964 -0.568425
H -3.536920 -1.808593 2.008910
H -4.003073 -1.538056 4.414351
H 1.000840 -1.157665 -8.768370
H -2.605196 -2.439845 7.002212
H -5.883439 -1.439679 9.149890
H -5.701966 0.741012 8.379795
H -4.022678 1.332914 6.903559
C 0.791991 -3.325239 -11.104726
H -1.417419 0.698382 8.507394
H 0.576648 2.134686 8.718217
H 2.607950 6.541977 8.720896
H 1.559951 5.320463 7.027456
C 5.902785 3.087304 -0.394870
C 5.491069 4.044840 -1.278985
C 4.191385 4.477699 -1.254459
C 3.291486 3.920229 -0.361337
C 2.438605 2.936459 5.039528
C 3.582046 3.720196 4.703057
C 3.820631 3.595585 3.378040
C -0.487618 -3.274410 -5.579423
C 2.830430 2.726424 2.822841
C 2.703695 2.357182 1.484668
C 3.685229 2.945969 0.530634
C 5.014225 2.538032 0.512502
C -2.235201 -3.253095 -1.371199
H 1.139621 1.760854 3.776797
H -0.536415 0.498349 3.612110
C -1.517117 -3.266212 -7.838676
C -2.556277 -3.790890 -9.821961
C -1.676528 -4.835326 -9.517919
C 1.367049 -2.907136 -9.890411
C -1.040218 -4.530357 -8.295239
C 2.493410 3.559514 7.410392
C 3.405790 2.970891 8.244264
C 4.019114 3.695602 9.251025
C 3.711581 5.013854 9.426593
C 2.811453 5.622152 8.604691
C 0.170625 -0.272763 -1.826772
C -0.118058 -0.727757 -2.890767
C -0.468612 -1.342286 -4.153379
C -1.127233 -0.626429 -5.144860
C -1.449409 -1.249483 -6.338068
C -1.138302 -2.580524 -6.587116
C -0.161976 -2.679229 -4.381722
C 1.708006 1.499335 0.963221
C 1.656678 1.118288 -0.428867
C 0.573058 0.312580 -0.585713
C -0.039211 0.199446 0.746498
C -1.187803 -0.537889 1.047980
C -1.904489 -1.270962 -0.043273
C -1.604611 -2.595117 -0.320589
H 0.989588 -4.133570 -11.565317
C -3.162235 -2.585771 -2.139607
H 2.023140 -3.379346 -9.390259
C -3.497218 -1.283915 -1.844835
C -2.877716 -0.632987 -0.785433
C -1.784969 -0.650367 2.313031
C -2.996725 -1.331464 2.627368
C -2.463254 -2.810399 -8.799952
C -3.253298 -1.187178 3.948297
C -2.201557 -0.415246 4.520091
C -2.058748 -0.052563 5.859869
C -3.144892 -0.486242 6.793056
C -0.111828 -1.311789 -10.548448
C -3.239076 -1.785638 7.273452
C -0.123636 -2.343108 -11.519317
C -4.260799 -2.128318 8.151149
C -5.183101 -1.198655 8.556256
C -5.076402 0.085165 8.093250
C 0.800793 -1.665946 -9.545339
C -4.074813 0.437683 7.218481
C -1.002109 0.712647 6.383086
C -0.856268 1.001711 7.802715
C 0.221366 1.775610 7.912908
C 0.752499 1.970561 6.579158
C 1.859284 2.775941 6.299331
C 2.192997 4.895802 7.594691