15
H8 C7
C 2.384135 -0.191155 -0.500275
C 0.915287 -0.081301 -0.187384
C 0.110654 0.738508 -0.947601
C -1.242212 0.840164 -0.670112
H 2.892884 0.367954 0.121739
C -1.788938 0.158083 0.378847
H 2.545821 0.112174 -1.418563
C -1.012236 -0.658446 1.145756
H 2.667533 -1.124097 -0.408856
C 0.334029 -0.783057 0.845313
H 0.484852 1.235312 -1.666331
H -1.795187 1.391076 -1.212743
H -2.713890 0.251542 0.575468
H -1.388507 -1.135574 1.876699
H 0.872766 -1.370040 1.363475