220
Zn1 H90 C100 I4 N20 O5
Zn -2.410564 -3.116231 -0.463091
H -1.475011 -2.136230 8.105913
H -2.779806 -3.821095 7.256557
H 1.647654 -4.890727 0.094935
H -0.453038 -0.637183 6.676349
H -3.073904 -4.008476 4.982558
H -3.464909 -0.324882 3.787556
H 0.043492 -2.114369 -0.573310
C 0.217080 0.540193 4.275933
C 0.954559 1.063297 3.045463
C 1.941483 4.315916 4.070533
H -7.684879 7.132874 -3.885893
C 2.249293 2.996443 3.975434
H -7.595343 5.622897 -4.228404
C 2.593660 5.413655 4.820160
H -7.053728 6.144440 -2.870356
C 1.797795 6.355243 5.463252
H -6.530472 7.657540 -5.995060
H -7.304673 -0.534124 -0.756517
C 2.344711 7.373346 6.235334
C 3.735470 7.468598 6.396204
H -6.374613 6.155371 -6.351708
C 4.374797 8.499192 7.348606
H -5.124534 7.073536 -6.296673
C 5.343213 9.356459 6.606201
H -5.632578 8.508561 -3.754664
H -5.739225 -0.329566 -3.144368
C 5.054230 7.718439 8.456548
H -5.094864 -1.948849 -4.681545
C 3.353436 9.417358 8.021854
H -1.954532 -6.267976 -4.494893
C 4.512783 6.567608 5.685713
C 3.972060 5.554190 4.908437
H -4.257606 7.885520 -4.116330
H -4.962973 7.495143 -2.790490
C 1.167817 1.919003 -2.559270
H -4.904120 -5.579352 -5.011389
C 1.417834 2.916806 -3.460537
H -5.054419 -6.030627 -7.296265
C 2.378954 2.757532 -4.452931
H -3.716918 -4.878235 -8.775696
C 3.123875 1.589525 -4.582143
H -2.353735 -3.132471 -8.027583
C 4.124104 1.386529 -5.718395
C 3.377121 0.866548 -6.907118
C 4.809325 2.724740 -6.066471
C 2.823000 0.560492 -3.698488
C 1.865639 0.722889 -2.702281
H -3.352930 1.981463 -0.807085
C -1.458459 1.350615 -5.104677
C 5.245593 0.434010 -5.270934
C -2.369696 1.837805 -4.190979
C -3.191530 3.047972 -4.204269
C -4.499138 3.024550 -3.697788
C -5.315714 4.123850 -3.735930
C -4.887651 5.324649 -4.311806
C -5.784855 6.564485 -4.421502
C -7.160856 6.347436 -3.792028
C -5.973500 6.893963 -5.908276
C -5.097280 7.724685 -3.703343
C -3.569648 5.359002 -4.784858
C -2.750422 4.255017 -4.740574
C -0.572422 -4.715839 3.073473
C -0.144173 -5.623074 2.185430
C -0.578742 -6.029066 -0.263316
I 3.787424 1.845768 4.728225
C 0.422194 -7.145543 -0.226322
C 0.072334 -8.472823 -0.100544
C 1.072438 -9.470626 -0.052585
C 2.406276 -9.114603 -0.131998
C 2.770721 -7.801376 -0.281585
C 3.764861 -2.194005 8.390836
C 1.791608 -6.826995 -0.313672
H -2.168004 -2.034732 -4.760372
C 3.163926 -4.915711 -1.064308
C 4.910936 -3.035657 8.819327
C 2.543957 -2.618735 9.213100
H -0.387503 -0.915131 3.188367
C 3.345406 -3.427596 -0.829422
C 2.892792 -2.629666 2.646999
C 4.042913 -0.780842 8.748644
H -0.531540 -1.197764 -0.996590
N 1.269963 2.459284 3.246195
C 3.645914 -3.241776 1.673993
C 3.130706 -2.518799 4.096239
N 0.773909 4.523596 3.380247
C 2.079724 -2.610928 5.000462
C 2.289787 -2.493815 6.343800
C 3.557009 -2.311118 6.869032
C 4.616824 -2.242412 5.966835
C 4.410752 -2.331418 4.613855
C -0.120193 -0.815195 -5.195130
C -0.789803 -1.841105 -6.068859
C -2.742706 -3.404173 -6.058524
O 0.228828 1.121073 5.344017
C -2.829921 -3.668068 -7.432917
C -3.695600 -4.658063 -7.863682
C -4.463232 -5.385725 -6.981732
C -1.581599 -2.217428 7.184725
C -4.367179 -5.129638 -5.625887
C -5.676912 0.622953 -0.558415
C -3.479404 -4.163065 -5.147779
C -5.342079 1.961164 -0.470716
C -3.302893 -3.931962 -3.687672
C -2.477174 -4.850128 -3.014384
C -3.605511 3.215054 0.681849
C -1.419357 -3.783619 2.362774
C -2.137614 3.277514 1.029961
C -2.057744 -2.659334 2.940388
I 5.253500 -4.551724 1.792375
C -1.895849 -2.484446 4.417813
C -0.471076 3.119802 -0.905455
C -2.521625 -3.365135 5.305316
C 0.167110 2.040801 -1.474096
C -2.370359 -3.233969 6.668656
C -0.956478 -1.318000 6.340496
C -1.098905 -1.456974 4.954533
H 4.524244 4.967064 4.445885
C -6.323839 2.948036 -0.589774
H 5.449896 6.612892 5.724498
C -7.658118 2.596697 -0.760807
H 1.782817 8.001071 6.684735
C -8.005546 1.270978 -0.798599
N 2.158287 -5.459116 -0.379839
H 1.747530 0.583915 2.869049
H 0.323641 1.064859 2.306921
N 2.969554 -3.015358 0.511407
N 1.837791 -2.306434 0.740576
N 1.788815 -2.075331 2.046358
C -2.852070 -1.738045 2.259773
C -4.026379 -0.752735 0.691843
C -4.234515 -0.000089 1.930733
O 3.921920 -5.509084 -1.828225
C -3.519196 -0.613761 2.886344
C -4.673761 -0.485717 -0.515167
H 2.556770 3.449280 -5.043976
H 0.911062 3.722543 -3.412819
C -7.025546 0.302844 -0.725111
C -4.518684 -1.246171 -1.690528
C -3.908561 -2.802993 -3.107700
C -4.797740 -1.919180 -3.812140
C -5.191267 -0.977592 -2.936161
C -0.744221 -5.295157 0.919254
H 1.711457 -0.012581 -2.128214
C -1.228345 -5.785471 -1.471369
H 3.271854 -0.240561 -3.764555
C -1.081903 -6.575593 -2.669388
I -0.781398 2.073280 -6.938997
C -1.832838 -6.018135 -3.629060
I -0.340557 5.153508 -1.220335
H 5.465669 8.311811 9.073303
H 4.410479 7.185965 8.908087
N -2.434415 0.946184 -3.170818
H 2.750581 8.884884 8.527948
H 5.739637 9.991992 7.193697
H 6.020534 8.802124 6.238348
H -0.577311 -7.311063 -2.736246
H 4.888238 9.810857 5.907530
N 0.361127 3.383696 2.894033
H 5.124604 -2.254904 4.038864
H 5.468417 -2.122176 6.310265
H 5.716074 7.156296 8.070671
H 1.562020 -2.543783 6.938439
N -3.983251 2.337487 -0.273846
H 1.195639 -2.718672 4.704802
N -1.237508 2.610750 0.086750
H 4.294074 -3.246461 -0.990649
H 2.805544 -2.971636 -1.486910
N -1.088431 1.270978 0.148075
H 3.658848 -7.548412 -0.361490
N -0.244114 0.927446 -0.789344
H 3.045546 -9.734521 -0.067646
H 3.795390 10.031030 8.599779
H 0.849644 -10.393477 0.014838
H 2.871060 9.896740 7.360058
H -0.853562 -8.649274 -0.033649
H 5.683911 0.819702 -4.522187
H 0.440677 -6.330436 2.350061
H 3.971062 0.729135 -7.636053
H -0.321753 -4.756438 3.952093
H 2.711992 1.498958 -7.151854
H 5.430019 2.596697 -6.776034
H 4.147730 3.350905 -6.336457
H 5.266410 3.055780 -5.301700
O -4.354403 3.895870 1.339994
H 0.573923 -0.371727 -5.708647
H 0.263174 -1.228994 -4.419069
N -1.039390 0.176362 -4.611368
N -1.640129 -0.068795 -3.429576
N -1.909068 -2.382948 -5.549137
N -2.092031 -4.737700 -1.709086
N -1.521654 -4.161504 1.053871
N -0.408379 -0.626253 4.040124
H -1.872559 4.287809 -5.072925
H -3.249419 6.158494 -5.147358
N -3.148536 -1.778645 0.934256
H -6.191580 4.105112 -3.377048
H -4.782239 2.198513 -3.324228
H 5.034326 -2.952898 9.758446
H 4.718437 -3.939770 8.603217
H 5.873359 0.301282 -5.970743
N -3.755174 -2.368894 -1.830695
H 0.878585 6.303714 5.350597
H 5.703350 -2.763955 8.373383
H 4.868313 -0.401396 -5.021176
H 4.177357 -0.698082 9.685815
H 4.831346 -0.513824 8.289320
H 2.961824 0.043634 -6.676022
H 3.318946 -0.228069 8.481187
H 2.727481 -2.525045 10.140827
O -0.305155 -2.179952 -7.122873
H 2.370245 -3.530655 9.013997
O -0.639564 -2.036293 -1.074340
H 1.785049 -2.094069 8.986448
H -4.777782 0.758804 2.039388
H -2.034982 2.902752 1.920382
H -1.886294 4.222225 1.064712
H -8.885506 0.989907 -0.886449
H -8.305773 3.250968 -0.848123
H -6.096181 3.874009 -0.543535