342
Zn2 H128 C194 N10 O8
H 10.300007 1.977485 -6.392377
H 7.580852 -1.516068 9.449765
H 5.959613 5.580345 -4.850158
H 7.930091 6.527677 -5.646593
H 8.621911 5.880405 -7.773218
H 6.136497 0.009950 -0.838105
H 8.244911 -0.525871 -1.434887
H 8.830021 -1.173142 -3.624498
H 7.092041 -1.445339 -5.167601
H 6.052199 2.682626 -3.833581
H 8.341761 2.884094 -3.834206
H 8.487356 0.980858 -7.420511
H 6.192455 0.727951 -7.365597
H 5.551046 0.102112 2.865948
H 7.343456 0.946565 4.096132
H 6.957398 1.808166 6.171669
H 5.935569 -5.151077 10.182460
H 6.609720 -2.763459 6.444020
H 5.555945 -0.510868 9.661976
C 6.222662 5.383163 -5.740434
C 7.413638 5.933987 -6.178419
C 7.792996 5.554626 -7.441092
C 7.040181 4.727318 -8.264475
C 5.776618 4.255796 -7.767714
C 5.563782 -0.825930 -3.952911
C 6.313542 -0.290109 -1.723491
C 7.561918 -0.592312 -2.088706
C 7.927177 -1.001680 -3.388490
C 6.898062 -1.134563 -4.290482
C 5.844511 1.679569 -5.587076
C 6.546286 2.322554 -4.562326
C 7.895454 2.459724 -4.557081
C 8.611896 1.953909 -5.650272
C 7.987383 1.319497 -6.686687
C 6.627792 1.180183 -6.649983
C 6.462257 0.963712 4.451010
C 6.224928 1.471670 5.671279
C 5.946056 -2.283363 6.924213
C 6.263460 -1.674671 8.147516
O 9.985314 2.138231 -5.630402
O 7.547271 -1.854707 8.683034
H 2.359101 -7.986642 -6.860767
H -0.456832 -10.303532 3.006549
H -2.523260 -5.873364 -9.329574
H -0.764598 -6.046970 -10.850667
H -0.308075 -6.297734 -5.786487
H 3.362041 -5.959096 -7.461826
H 4.044420 -6.432761 -2.575062
H -1.122851 -6.595651 -0.023833
H -2.775300 -8.230977 0.028772
H -4.584296 -8.050941 1.528527
H -4.640665 -6.336314 3.075538
H 1.147013 -5.543298 3.471923
H 1.554541 -7.697299 2.643694
H -1.934786 -9.000416 4.232242
H -2.332656 -6.917143 5.110593
H 2.301289 -7.225776 6.076325
H 1.716449 -9.347628 6.783742
H -0.054774 -9.632684 8.293515
H -1.370923 -7.793747 8.852802
H -0.812971 -5.689042 8.127449
H 3.936860 -5.697615 6.769620
Zn 0.955444 1.234194 -5.506417
Zn -0.922813 -1.236584 5.385189
H 0.403333 10.113391 -2.441726
H -8.372542 1.647419 -6.871321
H -0.452012 7.794358 8.013091
H -10.149403 -1.541787 3.410049
H 5.210829 3.728548 -8.321981
H 1.694124 6.107593 -7.615761
H 1.440064 8.336609 -8.231525
H 2.548301 9.982651 -6.997803
H 3.749214 9.414681 -5.117763
H 4.113133 7.127797 -4.575713
H 2.024296 5.327438 -2.671271
H 2.126971 7.384991 -1.619270
H -0.525501 8.956018 -4.221266
H -0.638482 6.889892 -5.346675
H -1.012934 4.590148 -1.735757
H -1.606865 6.409796 -0.275280
H -3.265522 7.869373 -1.005300
H -4.118036 7.805074 -3.068171
H -3.542369 6.069014 -4.516988
H -3.176219 1.364506 -2.707016
H -5.108615 0.967998 -1.411664
H -7.089991 2.110369 -1.901608
H -7.083472 3.818566 -3.514802
H -5.150725 4.195784 -4.786073
H -4.212500 -0.555877 -5.070671
H -6.566960 -0.525871 -5.134023
H -6.415929 2.551885 -7.680001
H -4.079301 2.581891 -7.588042
H -4.396618 -2.392671 -7.614259
H -6.121332 -2.244784 -9.172792
H -5.931531 -0.834504 -11.000194
H -4.130723 0.582207 -11.155284
H -2.382171 0.389312 -9.624613
H -2.644627 -4.036570 -7.855870
H 0.923968 -4.441650 -10.812502
H 0.760636 -2.598426 -9.468815
H -0.413439 -3.961555 -5.615519
H 3.164496 -3.616486 -7.390120
H 1.822805 -3.245698 -3.602304
H 2.034319 -5.206803 -2.427261
H 5.565401 -3.554331 -4.936215
H 4.381192 -0.230097 -2.369228
H 3.435840 0.207133 3.757782
H 4.834018 1.902470 7.091556
H 0.448849 3.370620 3.922674
H 0.877994 5.539623 3.096625
C 0.406037 -5.757627 -6.105458
H 2.748433 6.694853 3.877295
C 1.523216 -6.323454 -6.663624
H 3.847970 5.948990 5.763305
C 2.576256 -5.551872 -7.113782
H 3.369333 3.855002 6.669312
H -2.378125 4.069330 5.249754
H -2.258941 6.369074 5.581549
H 0.428725 5.736805 8.587423
H 0.299509 3.413485 8.142928
C 3.964395 -5.601167 -3.029095
H -5.305155 3.829282 6.079933
H -5.926521 5.661790 7.296999
H -5.029847 6.058298 9.380751
H -3.498237 4.566572 10.304541
H -2.860233 2.624757 9.067892
H -6.865032 2.166094 5.590222
H -9.030288 1.688142 6.384593
H -9.356371 0.063532 8.024329
H -7.512895 -1.089554 8.847616
H -5.394787 -0.665184 8.024941
H -5.540041 0.530768 3.114746
H -7.745592 0.541485 2.383538
H -8.622792 -2.529841 4.805980
H 7.352252 4.480841 -9.125806
H -6.419511 -2.645578 5.550045
H -4.087796 -1.657525 1.367993
H -5.606951 -1.537501 -0.377922
H -7.487073 -2.964928 -0.473992
H -7.832669 -4.437364 1.229855
H -6.245191 -4.632403 2.982875
H -1.224372 -4.814582 1.534528
H 4.268659 -3.697931 10.961634
H 2.512057 -3.063519 9.502575
H 4.462073 -2.600570 5.596759
H 3.369815 -0.302969 8.745239
H 0.684103 -1.040259 -3.710273
H 0.231476 -1.691817 -1.492733
H 0.896615 2.108225 -0.505690
H 1.299178 2.521879 -2.761964
H -1.441214 -2.216922 2.483094
H -0.962992 -1.706820 0.300812
H 1.254574 1.295921 1.531335
H 0.846160 0.629359 3.688732
C -2.946184 -5.399698 2.457968
C -1.900608 -5.481143 1.535882
C -1.833102 -6.544212 0.605818
C -2.815865 -7.497973 0.631351
C 3.596054 2.781217 -5.704247
C -3.891008 -7.401526 1.543468
C 4.086393 4.118626 -5.907744
C -3.928478 -6.379179 2.447306
C 3.010128 4.965223 -5.690460
C -0.643866 -6.012678 4.417472
C 1.901961 4.118626 -5.356436
C 0.532158 -6.248439 3.642362
C 0.656814 4.588005 -4.848486
C 0.766777 -7.525836 3.144671
C -0.127012 -8.539609 3.370134
C -0.534283 3.814279 -4.848312
C -1.817878 4.097193 -4.225163
C -1.305866 -8.301705 4.098743
C -2.686715 3.091993 -4.567058
C -1.541059 -7.069317 4.608309
C -1.912788 2.187527 -5.429084
C 0.759718 -6.220576 6.986748
C -2.413116 1.053730 -6.136003
C 1.537592 -7.341514 6.631452
C -1.609409 0.007807 -6.622722
C 1.211066 -8.597478 7.074715
C -2.040121 -1.042402 -7.520527
C 0.147162 -8.773227 7.943646
C -1.031731 -1.953298 -7.553008
C -0.613504 -7.678009 8.292155
C 0.051536 -1.462486 -6.713269
C -0.295190 -6.430618 7.841953
C 1.244978 -2.079752 -6.327967
C 2.376647 -1.374611 -5.796461
C 3.541481 -1.914719 -5.062833
C 5.031620 -5.607597 8.449025
C 4.382336 -0.866653 -4.894580
C 3.779283 0.305724 -5.535180
C 4.362194 1.615270 -5.602376
C 5.385761 4.577289 -6.474683
C 2.923424 6.392650 -6.057677
C 2.142214 6.778441 -7.115015
C 1.980008 8.100847 -7.486766
C 2.621442 9.069612 -6.744696
C 3.362037 8.730973 -5.653389
C 3.556410 7.365701 -5.307754
C 0.664246 5.901838 -4.162296
C 1.510895 6.058298 -2.996658
C 1.559918 7.271397 -2.373022
C 0.782552 8.364471 -2.829744
C -0.009929 8.220871 -3.911455
C -0.075184 6.979910 -4.587735
C -2.166348 5.192411 -3.288000
C -1.629742 5.254566 -2.021717
C -2.000564 6.313349 -1.132749
C -2.964388 7.189952 -1.596819
C -3.492898 7.142800 -2.798091
C -3.131266 6.129026 -3.663210
C -3.974875 2.821939 -3.895142
C -3.969845 1.857461 -2.880598
C -5.128708 1.610984 -2.112293
C -6.296433 2.309694 -2.381461
C -6.301971 3.302035 -3.359549
C -5.138611 3.531366 -4.109379
C -3.887610 1.019437 -6.293771
C -4.655524 0.102112 -5.595429
C -6.057449 0.104255 -5.630000
C -6.671436 1.073019 -6.425884
C -5.965083 1.923903 -7.125854
C -4.565601 1.941049 -7.080482
C -3.241687 -1.012396 -8.439260
C -4.324060 -1.781835 -8.337748
C -5.346581 -1.702534 -9.273633
C -5.249067 -0.853793 -10.339604
C -4.184059 -0.050062 -10.448703
C -3.159094 -0.148653 -9.519213
C -0.930495 -3.144964 -8.466792
O 1.572022 -7.738021 -6.704716
C -1.915155 -4.109441 -8.460567
C -1.847023 -5.206803 -9.348554
C -0.805085 -5.318254 -10.239798
C 0.177444 -4.351633 -10.230709
C 0.099280 -3.277847 -9.406948
O 0.150452 -9.756995 2.808253
C 1.355479 -3.550044 -6.490702
C 0.349213 -4.362349 -6.017533
C 2.462938 -4.156594 -7.046890
C 3.642501 -3.209262 -4.370141
C 2.647464 -3.719364 -3.638925
C 2.756562 -4.883167 -2.950426
C 5.016550 -5.125358 -3.741268
C 4.845758 -3.905829 -4.424899
C 5.273848 -0.416563 -2.630958
C 1.737672 -0.182945 6.296268
C 2.450015 1.028010 5.997283
C 1.531502 2.058930 5.906533
C 0.220574 1.430948 6.154929
C -1.008828 2.069646 6.314563
C -2.260427 1.400942 6.244483
C -3.591478 1.876751 6.621234
C -4.480319 0.935849 6.217764
C -3.735550 -0.090784 5.548955
C -4.282496 -1.192432 4.780520
C -3.567628 -2.300510 4.409058
C -3.969633 -3.318570 3.396992
C -3.014433 -4.295907 3.437077
C -2.028061 -3.884397 4.425948
C -0.899778 -4.600253 4.890879
C 0.069603 -4.060146 5.723223
C 1.040586 -4.870307 6.551633
C 1.965935 -3.980844 7.023423
C 1.573490 -2.654152 6.518849
C 2.283702 -1.441053 6.609740
C 3.893671 1.032297 5.495845
C 4.162190 0.535055 4.273638
C 5.414481 0.477186 3.730469
C 4.966320 1.531682 6.229019
C 1.854412 3.398482 5.376174
C 1.140218 3.895724 4.311657
C 1.418230 5.173122 3.787570
C 2.484997 5.880405 4.288008
C 3.165126 5.415313 5.374757
C 2.873896 4.174351 5.923106
C -0.998363 3.561372 6.596178
C -1.777668 4.416542 5.897737
C -1.725064 5.777528 6.102112
C -0.880170 6.259767 7.081386
C -0.117564 5.402453 7.886762
C -0.201320 4.028608 7.615761
C -3.962864 3.081276 7.424839
C -4.914525 3.979312 6.934769
C -5.289883 5.057384 7.655700
C -4.766788 5.286716 8.894299
C -3.857325 4.407969 9.438798
C -3.461847 3.259169 8.694931
C -5.931271 0.757957 6.709340
C -6.996979 1.484530 6.239223
C -8.287114 1.208046 6.727108
C -8.485161 0.249998 7.693233
C -7.397218 -0.433709 8.170470
C -6.135986 -0.178659 7.681380
C -5.725935 -1.093841 4.362913
C -6.155989 -0.114360 3.446754
C -7.468256 -0.095071 3.031434
C -8.405729 -1.008110 3.557037
C -7.987465 -1.914719 4.456016
C -6.673987 -2.000450 4.902871
C -5.012040 -3.181399 2.341460
C -4.832395 -2.246928 1.344877
C -5.743903 -2.174056 0.313297
C -6.877217 -3.018510 0.250944
C -7.062337 -3.882253 1.228994
C -6.108356 -3.989418 2.296850
C 3.034719 -4.302337 7.963552
C 4.002278 -5.268958 7.612782
C 5.172796 -4.973185 9.644311
C 4.212648 -4.068719 10.087743
C 3.151569 -3.710791 9.224058
C 3.671684 -1.481775 7.093080
C 4.667836 -2.180486 6.424069
C 5.331429 -0.935238 8.841820
C 4.019614 -0.825930 8.294664
C 0.673808 -0.360838 -3.049562
C 0.438870 -0.787351 -1.699382
C 0.530323 0.164267 -0.722073
C 0.823723 1.400942 -1.133970
C 1.022189 1.647419 -2.513213
C -0.851820 -1.492492 2.308359
C -0.577030 -1.186002 0.994246
C 0.234922 -0.159369 0.683179
C 0.714085 0.528625 1.691735
C 0.430436 0.134261 2.991045
N 2.264917 2.802649 -5.439621
N -0.616824 2.603324 -5.519484
H 5.839117 -5.599024 -3.778260
N -0.322646 -0.219381 -6.238016
N 2.533909 -0.015769 -5.937344
N 0.399989 0.082822 6.301767
N -2.379809 0.144977 5.620619
N -2.353806 -2.658438 4.934076
N 0.392905 -2.742026 5.802762
N 0.861944 0.796536 -3.448213
N -0.338671 -0.832360 3.348087
O 0.901562 9.526131 -2.109820
O -8.062275 1.040870 -6.383475
O -0.854923 7.629325 7.295206
O -9.676968 -0.943811 3.055492
H 5.646569 -6.284875 8.195437