161
Zn1 H60 C92 N4 O4
Zn 0.000000 0.000000 0.000000
H 1.006130 8.578728 0.452289
C -3.006619 -3.763038 0.832253
C 3.006619 3.763038 0.832253
H -6.104041 -6.487996 2.750409
H 6.104041 6.487996 2.750409
C -3.763038 3.006619 -0.832253
C 3.763038 -3.006619 -0.832253
H -6.487996 6.104041 -2.750409
H 6.487996 -6.104041 -2.750409
H 1.908564 8.710450 2.556862
H 2.413030 -6.154488 -0.739554
C -3.256610 -4.899768 0.085568
C 3.256610 4.899768 0.085568
H -2.413030 6.154488 -0.739554
C -4.899768 3.256610 -0.085568
H -6.154488 -2.413030 0.739554
H 6.154488 2.413030 0.739554
C 4.899768 -3.256610 -0.085568
C -4.167451 -5.829387 0.483868
C 4.167451 5.829387 0.483868
H 4.086176 -7.600624 -0.025467
C -5.829387 4.167451 -0.483868
C 5.829387 -4.167451 -0.483868
H -7.600624 -4.086176 0.025467
H 7.600624 4.086176 0.025467
C -4.840073 -5.705513 1.678768
C 4.840073 5.705513 1.678768
H 5.041859 -7.303550 2.133095
C -5.705513 4.840073 -1.678768
C 5.705513 -4.840073 -1.678768
H -7.303550 -5.041859 -2.133095
H 7.303550 5.041859 -2.133095
C -4.587840 -4.579432 2.497779
C 4.587840 4.579432 2.497779
H -4.318791 5.529510 3.452273
H 4.318791 -5.529510 3.452273
C -4.579432 4.587840 -2.497779
C 4.579432 -4.587840 -2.497779
H -5.529510 -4.318791 -3.452273
H 5.529510 4.318791 -3.452273
C -3.696056 -3.629354 2.066881
C 3.696056 3.629354 2.066881
H -2.687684 4.077768 2.649561
H 2.687684 -4.077768 2.649561
C -3.629354 3.696056 -2.066881
C 3.629354 -3.696056 -2.066881
H -4.077768 -2.687684 -2.649561
H 4.077768 2.687684 -2.649561
N 0.256998 -2.006935 0.069270
N -0.256998 2.006935 0.069270
H 0.120511 6.569271 -0.344310
H -0.120511 -6.569271 -0.344310
N -2.006935 -0.256998 -0.069270
N 2.006935 0.256998 -0.069270
H -6.569271 0.120511 0.344310
H 6.569271 -0.120511 0.344310
O -5.751475 -6.674368 2.010855
H -1.006130 -8.578728 0.452289
O 5.751475 6.674368 2.010855
O -6.674368 5.751475 -2.010855
O 6.674368 -5.751475 -2.010855
H -8.578728 1.006130 -0.452289
H 8.578728 -1.006130 -0.452289
H -1.908564 -8.710450 2.556862
H -8.710450 1.908564 -2.556862
H 8.710450 -1.908564 -2.556862
H -6.796281 1.877735 -3.974850
H 6.796281 -1.877735 -3.974850
H -1.048169 -4.784021 3.155840
H 1.048169 4.784021 3.155840
H -4.784021 1.048169 -3.155840
H 4.784021 -1.048169 -3.155840
H -2.780169 -5.033452 -0.726312
H 2.780169 5.033452 -0.726312
H -5.033452 2.780169 0.726312
H 5.033452 -2.780169 0.726312
H -4.338409 -6.580481 -0.073344
H 4.338409 6.580481 -0.073344
H -6.580481 4.338409 0.073344
H 6.580481 -4.338409 0.073344
H -5.030649 -4.481341 3.333088
H 5.030649 4.481341 3.333088
H -4.481341 5.030649 -3.333088
H 4.481341 -5.030649 -3.333088
H -3.536869 -2.864247 2.606777
H 3.536869 2.864247 2.606777
H -2.864247 3.536869 -2.606777
H 2.864247 -3.536869 -2.606777
C 1.480048 -2.645645 0.029541
C -1.480048 2.645645 0.029541
C -2.645645 -1.480048 -0.029541
C 2.645645 1.480048 -0.029541
C 1.321982 -4.017513 0.462476
C -1.321982 4.017513 0.462476
C -4.017513 -1.321982 -0.462476
C 4.017513 1.321982 -0.462476
C -0.001962 -4.170254 0.757890
C 0.001962 4.170254 0.757890
H -1.877735 -6.796281 3.974850
H 1.877735 6.796281 3.974850
C -4.170254 0.001962 -0.757890
C 4.170254 -0.001962 -0.757890
C -0.669258 -2.938796 0.455345
C 0.669258 2.938796 0.455345
C -2.938796 0.669258 -0.455345
C 2.938796 -0.669258 -0.455345
C -2.038884 -2.686002 0.404412
C 2.038884 2.686002 0.404412
C -2.686002 2.038884 -0.404412
C 2.686002 -2.038884 -0.404412
C 2.392291 -4.982445 0.873000
C -2.392291 4.982445 0.873000
C -4.982445 -2.392291 -0.873000
C 4.982445 2.392291 -0.873000
C 1.020143 7.805213 1.006446
C 2.810998 -6.020524 0.112054
C -2.810998 6.020524 0.112054
C -6.020524 -2.810998 -0.112054
C 6.020524 2.810998 -0.112054
C 1.541425 7.889291 2.247186
C 3.797509 -6.888766 0.536839
C -3.797509 6.888766 0.536839
C -6.888766 -3.797509 -0.536839
C 6.888766 3.797509 -0.536839
C 4.372040 -6.709400 1.816289
C -4.372040 6.709400 1.816289
C -6.709400 -4.372040 -1.816289
C 6.709400 4.372040 -1.816289
C 3.946047 -5.666837 2.588440
C -3.946047 5.666837 2.588440
C -5.666837 -3.946047 -2.588440
C 5.666837 3.946047 -2.588440
C 2.967943 -4.806442 2.108647
C -2.967943 4.806442 2.108647
C -4.806442 -2.967943 -2.108647
C 4.806442 2.967943 -2.108647
C -0.548187 -5.450197 1.331402
C 0.548187 5.450197 1.331402
C -5.450197 0.548187 -1.331402
C 5.450197 -0.548187 -1.331402
H -4.086176 7.600624 -0.025467
C -0.504466 -6.608507 0.524615
C 0.504466 6.608507 0.524615
C -6.608507 0.504466 -0.524615
C 6.608507 -0.504466 -0.524615
H -5.041859 7.303550 2.133095
C -1.020143 -7.805213 1.006446
C -7.805213 1.020143 -1.006446
C 7.805213 -1.020143 -1.006446
C -1.541424 -7.889291 2.247186
C -7.889291 1.541425 -2.247186
C 7.889291 -1.541424 -2.247186
C -1.541424 -6.745834 3.087589
C 1.541425 6.745834 3.087589
C -6.745834 1.541425 -3.087589
C 6.745834 -1.541424 -3.087589
C -1.045366 -5.554733 2.596590
C 1.045366 5.554733 2.596590
C -5.554733 1.045366 -2.596590
C 5.554733 -1.045366 -2.596590