13
H8 C4 O1
H 0.364671 1.086995 -1.726094
H -1.409662 1.598930 0.040224
O 0.739695 -0.613609 -0.721505
C -0.118173 0.474544 -1.114421
H 0.149032 1.874766 0.379966
H -0.272870 0.310912 1.981639
C -0.514292 1.186343 0.119690
H -1.426069 -0.383355 1.117783
H -0.917443 0.128579 -1.583890
C -0.511948 -0.003495 1.074907
H -0.068951 -1.875913 0.725258
C 0.362327 -0.986456 0.694802
H 1.159253 -0.995806 1.283123