13
H8 C4 O1
C 0.786237 0.874542 0.497042
C -0.485754 0.401405 1.190431
C -1.101585 -0.487092 0.093145
O -0.050825 -0.902453 -0.818067
H 1.738796 -0.162299 -1.040510
H 0.627914 0.779290 -1.575577
H 1.534654 0.626262 1.029014
H 0.775374 1.817692 0.387498
H -0.305142 -0.101400 1.974518
H -1.044284 1.138436 1.408391
H -1.512656 -1.249107 0.486803
H -1.751741 0.009467 -0.387648
C 0.863526 0.173425 -0.882422