113
Y1 H50 C54 N4 Cl1 O3
H -1.124940 -4.441709 2.521727
H -3.320416 -3.436597 2.134489
H -1.853884 4.946882 1.959174
H 6.688880 2.217509 -2.827909
H -2.516560 7.143971 1.916010
H -1.918711 7.285536 -1.997299
H 7.484092 2.186364 1.027385
H -1.204173 5.116760 -1.966890
H 8.898762 2.761118 -2.181294
H 9.371279 2.039137 -0.871988
H 8.931896 3.542557 -0.822228
H 4.530860 1.569141 -2.414215
H 5.323190 1.532334 1.458711
H 2.326740 -3.207262 3.880907
H 3.205507 -5.061764 4.934758
H 1.857104 -7.394755 2.036129
H 1.010031 -5.543085 0.942022
H 3.742851 -7.355117 5.042902
H 3.941654 -8.028966 3.640790
H 2.623504 -8.278120 4.449141
H -4.880587 -2.434317 -0.508058
H -7.058776 -3.071360 -0.217401
H -7.215801 -1.160232 3.184567
C -2.751378 8.936184 -0.061445
H -5.077949 -0.370299 2.890139
H -0.452179 -3.883943 -1.017857
H 0.773772 -4.540804 -1.745224
H -0.364302 -3.864124 -2.582992
H 2.560118 -2.844856 -2.523499
H -9.190865 -2.125705 2.507736
H 1.368741 -2.895819 -3.528001
H -8.945963 -3.476236 1.748433
H 1.865748 -1.211196 -4.135313
H -9.399752 -2.202151 0.955900
H 2.980773 -1.115875 -3.056802
H 1.946422 1.362456 -3.878542
H 0.952407 0.331863 -4.498514
H -0.300916 1.744682 -4.374870
H 0.570648 2.554433 -3.369708
H -2.731210 1.543659 -2.294996
H -2.300470 1.212397 -3.766460
H -2.183782 2.679011 -3.224705
C -3.074073 0.439452 0.572994
C -4.085375 1.470046 0.578036
C -3.450070 2.642204 0.388551
C -2.042603 2.359074 0.224379
C -1.050029 3.350029 -0.002516
C 0.321424 3.072561 -0.165061
C 1.352894 4.097492 -0.274140
C 2.542830 3.454787 -0.349118
C 2.270557 2.041968 -0.261382
C 3.258809 1.059507 -0.169680
C 3.045600 -0.259879 0.253063
C 4.069868 -1.199870 0.595135
C 3.470578 -2.284258 1.105605
C 2.037179 -2.049260 1.057388
C 1.077739 -2.938289 1.582746
C -0.321084 -2.760200 1.501564
C -1.296371 -3.637620 2.082357
C -2.500714 -3.085516 1.873036
C -2.296149 -1.859563 1.176422
C -3.304569 -0.902584 0.927066
C -1.485090 4.760016 -0.009665
C -1.863968 5.405553 1.151356
C -2.257252 6.733432 1.122548
C -2.277421 7.458245 -0.027863
C 7.324185 2.259978 -0.950187
C -1.897102 6.821203 -1.190776
C 6.894886 2.058956 0.318618
C -1.487971 5.513142 -1.173097
C 8.766227 2.690336 -1.233169
C 4.667717 1.470046 -0.427128
C 5.115744 1.685224 -1.701155
C 6.422369 2.075944 -1.948831
C 5.585380 1.665405 0.577003
C 1.583390 -4.152916 2.269756
C 2.238864 -4.045327 3.482679
C 2.767564 -5.163690 4.120020
C 2.653757 -6.412294 3.559248
C 1.978115 -6.548196 2.403285
C 1.456617 -5.427001 1.749557
C 3.302027 -7.632584 4.236103
C -4.722121 -1.330110 1.151564
C -5.347342 -2.137031 0.239504
C -6.664051 -2.522087 0.418738
C -7.395876 -2.128537 1.474415
C -6.759131 -1.383905 2.407332
H -2.686551 9.273108 -0.957995
C -5.456827 -0.933728 2.255333
H -2.195306 9.462805 0.517780
H -3.661838 8.987147 0.234792
C 0.142789 -3.818823 -1.769107
C 1.730331 -2.408835 -2.770791
C 2.022773 -1.216858 -3.177176
C 1.144007 0.849991 -3.699340
C 0.174482 1.682393 -3.531806
C -2.107430 1.750344 -2.995487
C -8.872492 -2.519256 1.692055
N -1.840919 0.999767 0.311081
N 0.907748 1.825657 -0.161424
N 1.799480 -0.821042 0.511242
N -0.959271 -1.680625 0.931920
Cl -2.035544 -1.412218 -2.280775
O 0.844362 -2.567671 -1.713355
O 1.440771 -0.052911 -2.675573
O -0.774874 1.478823 -2.543395
Y -0.153254 -0.246855 -0.787951
H -5.000157 1.345468 0.690261
H -3.847676 3.483100 0.368191
H 1.218918 5.017664 -0.290572
H 3.378379 3.851169 -0.440316
H 4.984649 -1.080956 0.482911
H 3.894114 -3.045878 1.429738