102
Ni1 H43 C53 N4 O1
Ni -0.026257 -0.002559 -0.245761
H -0.835549 1.049091 -5.054778
H -0.321492 5.398417 -2.447119
H -2.538883 4.797986 -1.885708
H -2.409674 5.610983 -0.511221
H 1.027559 5.316979 1.973737
H -1.813646 4.985707 2.061612
H -0.792479 4.226542 3.032622
H -1.863662 -5.666068 1.701375
H -0.467373 -5.229893 2.346960
C 3.047107 3.992167 2.564930
C 3.699265 4.696258 3.570691
H -2.176264 -5.075300 3.963229
H -1.585794 -3.614942 3.676241
C 3.265790 4.589837 4.886931
H -2.983472 -4.053878 3.031013
H -3.286349 -5.290627 0.151560
H -3.258562 -4.750929 -1.357174
H -5.260604 -4.106329 -0.306394
H -4.431167 -3.340263 0.826112
H -4.407548 -2.806087 -0.681549
H 1.883394 3.706169 6.098040
H 0.785814 2.521871 4.405057
H 0.728851 -2.934454 4.515852
H 1.442973 -4.771634 5.778746
H 2.482201 -6.582587 4.721633
H 2.807307 -6.556362 2.403914
H 2.093185 -4.719182 1.143309
H -0.624369 -4.492813 -2.959747
H -1.380171 -6.122947 -4.459128
H -3.465574 -5.884156 -5.495066
H -4.796564 -4.016610 -5.028977
H -4.042151 -2.387856 -3.526949
C 3.703433 0.986978 3.713825
H -2.398559 3.321065 -4.091788
H -2.386055 4.720689 -5.967407
H -0.364562 5.584757 -6.769114
H 1.644427 5.047820 -5.695201
H 1.631923 3.648196 -3.819581
O 4.195260 0.467985 4.699725
C -0.107533 2.800692 -1.307316
C -0.111701 4.156147 -0.807241
C 0.266200 4.099554 0.500965
C 0.587138 2.712353 0.786912
C 1.352665 2.248572 1.837436
C 1.663878 0.900019 2.011435
C 2.637807 0.346519 2.925930
C 2.507209 -1.006175 2.877131
C 1.444362 -1.294658 1.955759
C 0.814990 -2.524505 1.852181
C -0.267308 -2.721888 1.002195
C -1.180106 -3.867537 0.985282
C -1.947023 -3.730888 -0.115242
C -1.480204 -2.546590 -0.825924
C -1.710835 -2.234642 -2.158291
C -1.274581 -1.043443 -2.716901
C -1.295421 -0.730115 -4.142163
C -0.905016 0.553564 -4.247198
C -0.606307 1.051852 -2.920903
C -0.360394 2.383841 -2.615651
C -0.610475 5.416361 -1.498362
C -2.117912 5.566813 -1.446959
H 3.019876 -1.639733 3.363244
C 0.164778 5.232781 1.495310
H -0.192283 6.205892 -1.070342
C -0.950864 5.049201 2.521727
C -1.357942 -4.898621 2.067958
H -2.380498 6.390852 -1.908151
C -2.091514 -4.363065 3.293634
C -3.243279 -4.473489 -0.406594
C -4.439503 -3.605280 -0.117100
C 1.961475 3.181655 2.875638
H 0.009171 6.077524 1.004301
H -0.963368 5.815267 3.133819
C 2.179324 3.779325 5.197624
C 1.527723 3.075234 4.191950
C 1.344052 -3.654143 2.711761
C 1.151072 -3.669464 4.088122
C 1.574960 -4.760729 4.837424
C 2.191828 -5.836811 4.209908
C 2.384947 -5.821490 2.833511
C 1.961197 -4.730087 2.084173
C -2.262681 -3.287397 -3.102423
C -1.471590 -4.396468 -3.379689
C -1.919236 -5.364473 -4.270976
C -3.158529 -5.223130 -4.885542
C -3.949065 -4.113783 -4.608649
H 3.343593 4.065047 1.666202
C -3.501419 -3.146054 -3.716904
H 4.441174 5.250725 3.359186
C -0.384429 3.352674 -3.779374
H 3.710380 5.071286 5.575284
C -1.577458 3.671247 -4.417061
C -1.570511 4.503016 -5.530845
C -0.370119 5.016074 -6.007278
C 0.823326 4.697224 -5.369698
C 0.816379 3.865732 -4.255915
N 0.249528 1.914539 -0.311918
N 0.991436 -0.124164 1.369580
N -0.538230 -1.861961 -0.049702
N -0.785532 0.031810 -2.000388
H 4.021592 1.840003 3.441971