218
Co2 H110 C94 N12
H -0.165757 -2.128358 3.888933
H 6.128413 -0.363515 -5.505088
H 4.724081 -3.410758 -3.618756
H 3.407232 -4.141154 -3.181428
H -0.280866 -0.159318 2.523923
H 0.018417 1.167960 -0.825764
H 5.223654 -5.448238 -2.520536
H -1.498721 -1.529231 -5.107913
H 4.521488 -4.915307 -1.224329
H -2.972119 -2.062162 -5.153188
H 5.842942 -4.242131 -1.734403
H -2.737296 -0.383710 -6.747028
H 0.960011 -3.122415 -0.577763
H 1.892395 -4.173691 -1.268462
H 7.689293 0.748347 0.429840
H -5.702509 -4.606768 -4.288390
H 1.079724 -3.487052 -3.384115
H 3.883784 1.750258 -2.743093
H -6.957199 -5.414579 -3.813687
H -0.163455 -0.136879 -3.997901
H 0.126620 -2.463824 -2.677324
H 2.410386 3.191976 -3.724240
H -7.440657 -4.127691 -5.728456
H 1.250086 4.709988 -2.432466
H -8.368437 -3.715932 -4.533938
H 0.186477 -1.213961 -0.731834
H 1.593111 4.704378 -0.124759
H -7.136769 -2.822851 -4.916485
H 4.698757 -1.574110 1.377141
H 3.073415 3.212171 0.791140
H -7.631738 -6.239220 -1.646236
C 2.317378 0.221026 1.366491
H 6.133017 -3.159439 2.197424
H -8.046131 0.941324 4.313807
H -7.967857 -5.700679 -0.217211
H 8.425992 -2.816120 2.051608
H -9.897087 -6.019315 -1.500289
C 1.682666 0.342198 2.665716
H 9.204130 -0.817909 1.142748
H -9.765863 -4.528231 -1.039565
H -7.348570 0.390442 6.489148
H -9.392909 -4.928770 -2.507410
C 2.576374 0.990691 3.478913
H -9.284706 -2.467190 4.120280
H -6.128413 0.363515 5.505088
H -4.724081 3.410758 3.618756
H -9.065999 -3.466856 2.935634
C 3.728386 1.304839 2.687206
H -3.407232 4.141154 3.181428
H -8.621677 -4.492328 5.000800
C 4.742959 2.162017 3.072365
H -5.223654 5.448238 2.520536
H -7.343965 -4.509157 4.093435
C 5.642652 2.760022 2.217977
H -4.521488 4.915307 1.224329
H -7.465981 -3.464612 5.256605
C 6.466603 3.907787 2.535803
H -5.842942 4.242131 1.734403
C 7.032480 4.319546 1.372786
H -8.766715 -0.361271 4.812625
H -0.960011 3.122415 0.577763
C 6.595065 3.397295 0.339097
H -1.892395 4.173691 1.268462
C 7.061027 3.361392 -0.956662
H -6.798348 -0.979471 5.962018
C 6.886752 2.278701 -1.814099
H -1.079724 3.487052 3.384115
C 7.663969 2.013918 -3.004212
H -0.126620 2.463824 2.677324
C 7.377577 0.732640 -3.372745
C 6.389941 0.227758 -2.449384
H -0.186477 1.213961 0.731834
H -4.698757 1.574110 -1.377141
H -6.133017 3.159439 -2.197424
H -8.425992 2.816120 -2.051608
H -9.204130 0.817909 -1.142748
H -0.094390 -4.004275 -2.484094
H -0.018417 -1.167960 0.825764
C 2.422818 1.293620 4.930441
C 5.760293 -0.992935 -2.514287
C 2.818103 0.124538 5.824856
C 4.609202 -1.322791 -1.834267
C 6.588619 4.522621 3.903248
C 3.783869 -2.476166 -2.081805
C 7.463679 3.723785 4.859193
C 2.599856 -2.279823 -1.424172
C 7.968087 5.471799 1.159264
C 2.732001 -1.018740 -0.697236
C 9.383700 5.213748 1.589600
H -7.689293 -0.748347 -0.429840
C 1.841747 -0.503760 0.257661
C 8.612699 2.968706 -3.633331
H -3.883784 -1.750258 2.743093
C 0.428206 -0.295075 3.171041
C 7.949440 3.948177 -4.582702
H -2.410386 -3.191976 3.724240
C 0.600409 -1.791770 3.419055
H -1.250086 -4.709988 2.432466
C 6.959501 0.059464 -5.735991
H -1.593111 -4.704378 0.124759
H -3.073415 -3.212171 -0.791140
C -2.317378 -0.221026 -1.366491
C -1.682666 -0.342198 -2.665716
C -2.576374 -0.990691 -3.478913
C 7.908231 -0.012342 -4.556245
C -3.728386 -1.304839 -2.687206
C -4.742959 -2.162017 -3.072365
C 4.198953 -3.686761 -2.852404
C -5.642652 -2.760022 -2.217977
C -5.760293 0.992935 2.514287
C 3.410915 2.344896 -2.207449
C 5.023364 -4.665110 -2.002890
C -4.609202 1.322791 1.834267
C -6.466603 -3.907787 -2.535803
C 1.496419 -3.294075 -1.368799
C 2.534704 3.214415 -2.803447
C -3.783869 2.476166 2.081805
C -7.032480 -4.319546 -1.372786
C 0.564726 -3.314270 -2.594388
C 1.843589 4.110861 -2.041971
C -6.595065 -3.397295 -0.339097
C -2.599856 2.279823 1.424172
C 0.350162 -0.687761 0.066678
C 2.050094 4.106374 -0.671393
C -7.061027 -3.361392 0.956662
C -2.732001 1.018740 0.697236
C 5.615256 -1.419279 1.335784
C 2.938047 3.204318 -0.127617
C -6.886752 -2.278701 1.814099
C -1.841747 0.503760 -0.257661
N 3.576442 0.793226 1.417837
C 6.468906 -2.378555 1.821341
C -7.663969 -2.013918 3.004212
C -0.428206 0.295075 -3.171041
N 5.734509 2.469434 0.879311
C 7.830877 -2.170993 1.745275
C -7.377577 -0.732640 3.372745
C -0.600409 1.791770 -3.419055
N 6.085362 1.202741 -1.524094
C 8.292926 -0.986203 1.207196
C -6.389941 -0.227758 2.449384
C 7.375736 -0.059464 0.767505
N 3.615119 2.316847 -0.871942
C -7.908231 0.012342 4.556245
C -2.422818 -1.293620 -4.930441
N 3.972418 -0.479077 -0.941833
C -4.198953 3.686761 2.852404
C -2.818103 -0.124538 -5.824856
N 6.048757 -0.264783 0.801260
C -6.588619 -4.522621 -3.903248
C -5.023364 4.665110 2.002890
C -1.496419 3.294075 1.368799
C -7.463679 -3.723785 -4.859193
C -7.968087 -5.471799 -1.159264
C -0.564726 3.314270 2.594388
C -0.350162 0.687761 -0.066678
C -9.383700 -5.213748 -1.589600
C -5.615256 1.419279 -1.335784
C -8.612699 -2.968706 3.633331
C -6.468906 2.378555 -1.821341
C -7.949440 -3.948177 4.582702
Co 4.832974 1.016159 -0.042099
C -7.830877 2.170993 -1.745275
C -8.292926 0.986203 -1.207196
C -6.959501 -0.059464 5.735991
C -7.375736 0.059464 -0.767505
H 4.823074 2.349384 3.979579
H 7.518931 4.105252 -1.278027
H 0.280866 0.159318 -2.523923
H 0.163455 0.136879 3.997901
H 0.165757 2.128358 -3.888933
N -3.972418 0.479077 0.941833
H 1.498721 1.529231 5.107913
C -3.410915 -2.344896 2.207449
N -6.048757 0.264783 -0.801260
H 2.972119 2.062162 5.153188
C -2.534704 -3.214415 2.803447
H 2.737296 0.383710 6.747028
C -1.843589 -4.110861 2.041971
H 6.139923 -1.645915 -3.056900
C -2.050094 -4.106374 0.671393
C -2.938047 -3.204318 0.127617
H 5.702509 4.606768 4.288390
N -3.576442 -0.793226 -1.417837
H 6.957199 5.414579 3.813687
N -5.734509 -2.469434 -0.879311
H 1.390519 -1.939869 3.945046
H 7.440657 4.127691 5.728456
N -6.085362 -1.202741 1.524094
H 0.686051 -2.247286 2.578638
H 8.368437 3.715932 4.533938
H 7.136769 2.822851 4.916485
H 7.631738 6.239220 1.646236
N -3.615119 -2.316847 0.871942
H 7.967857 5.700679 0.217211
H 3.727235 -0.125660 5.642108
H 9.897087 6.019315 1.500289
H 2.240025 -0.621566 5.652126
H 9.765863 4.528231 1.039565
H 9.392909 4.928770 2.507410
H 9.284706 2.467190 -4.120280
H 9.065999 3.466856 -2.935634
H 8.621677 4.492328 -5.000800
H 7.343965 4.509157 -4.093435
H 7.465981 3.464612 -5.256605
H 8.766715 0.361271 -4.812625
H -6.139923 1.645915 3.056900
H 6.798348 0.979471 -5.962018
Co -4.832974 -1.016159 0.042099
H -1.390519 1.939869 -3.945046
H -0.686051 2.247286 -2.578638
H -4.823074 -2.349384 -3.979579
H 8.046131 -0.941324 -4.313807
H -7.518931 -4.105252 1.278027
H -3.727235 0.125660 -5.642108
H 7.348570 -0.390442 -6.489148
H -2.240025 0.621566 -5.652126
H 0.094390 4.004275 2.484094