32
H12 C20
C 3.041251 -1.548650 -1.570281
C 2.077559 -2.212780 -2.252505
C 1.379325 -0.300264 -0.290455
C 2.708069 -0.593131 -0.597594
C -3.041251 1.548650 1.570281
C -2.077559 2.212780 2.252505
H 0.101317 3.326565 3.322468
C -1.379325 0.300264 0.290455
H 2.344183 2.854722 2.865989
C -2.708069 0.593131 0.597594
H 2.902669 1.300156 1.228610
H -0.101317 -3.326565 -3.322468
H -2.344183 -2.854722 -2.865989
H -2.902669 -1.300156 -1.228610
C -0.676927 1.967244 1.986656
C -0.354257 0.980664 0.995441
C 0.330385 2.671310 2.672742
C 1.655567 2.400629 2.394616
C 1.982431 1.453986 1.411457
H 3.956415 -1.733541 -1.752911
C 1.041817 0.726253 0.692161
H 2.324058 -2.847327 -2.914883
C 0.676927 -1.967244 -1.986656
H 3.402283 -0.136080 -0.136661
C 0.354257 -0.980664 -0.995441
C -0.330385 -2.671310 -2.672742
C -1.655567 -2.400629 -2.394616
H -3.956415 1.733541 1.752911
C -1.982431 -1.453986 -1.411457
H -2.324058 2.847327 2.914883
C -1.041817 -0.726253 -0.692161
H -3.402283 0.136080 0.136661