176
Co2 H90 C74 I2 N8
H -1.377987 3.782330 -4.789261
H -2.422050 3.288500 -3.684480
I 2.968287 -0.389330 -3.325834
H -2.582451 5.572694 -3.947051
N 3.590058 1.777418 -0.792841
H -1.029481 5.742853 -3.597931
N 5.484244 1.797763 -2.796874
H -2.054587 5.247173 -2.471495
N 3.568186 2.556078 -4.555241
H -1.879604 1.551772 -0.604427
H -2.578076 2.652255 -1.532689
N 1.668167 2.454353 -2.538841
H -2.489127 3.445712 0.683646
C -5.005959 -2.746582 8.028110
H -1.563177 4.374186 -0.232545
H -0.899702 3.260757 0.708072
C -2.172700 -4.181833 7.630272
H -0.523489 1.126376 0.728805
C -1.119888 -3.316243 8.309205
H -0.701388 -0.223796 -1.238518
C -2.532872 -1.542525 -0.060724
C -3.002409 -1.581365 -1.454268
C -4.327901 -1.799612 -1.399685
C -4.708488 -1.838453 -0.034631
C -6.006276 -1.816258 0.431551
C -6.381030 -1.749674 1.739648
C -7.731312 -1.603560 2.227958
C -7.654028 -1.499985 3.565738
C -6.254167 -1.640551 3.924500
C -5.777340 -1.795913 5.204776
C -4.543713 -2.308238 5.513267
C -4.154377 -2.818714 6.789190
C 5.005959 2.746582 -8.028110
C -2.970329 -3.443862 6.624583
C -2.589742 -3.227465 5.242269
C 2.172700 4.181833 -7.630272
C -1.348824 -3.514145 4.716873
C 1.119888 3.316243 -8.309205
C -0.909909 -3.088749 3.487051
C -0.479744 3.147934 -3.067728
C -0.557028 2.480247 -1.878309
C -0.794712 -2.056700 1.546969
C -1.216129 -1.444499 0.363519
C -2.184365 -1.607259 -2.719884
C -2.309769 -0.334769 -3.552893
C -5.258225 -2.119584 -2.532511
C -5.517783 -3.608472 -2.633741
C -8.934317 -1.655347 1.339606
C -9.234703 -3.070253 0.854604
C -8.763709 -1.451897 4.578076
C -9.166168 -2.835360 5.061765
C -6.061687 -3.834117 8.080294
Co 3.545146 1.981238 -2.711317
C -1.590883 3.808223 -3.822919
H 6.700373 1.847700 0.216877
C -1.834400 5.210182 -3.425966
H 6.338742 1.531427 -5.921914
C -1.773156 2.456202 -0.989789
H 0.756799 4.043116 -5.239400
H 1.232169 1.742276 2.483506
C -1.672541 3.475304 0.144617
H 2.471628 2.378521 3.270110
C -0.246434 -0.578909 -0.432550
H 1.821277 0.445742 4.394480
H 3.256133 0.162760 3.744104
I -2.968287 0.389330 3.325834
H 1.935015 -0.419848 3.054410
H 6.115640 1.646099 2.395953
N -3.590058 -1.777418 0.792841
H 4.863056 1.797763 3.381906
N -5.484244 -1.797763 2.796874
H 6.172509 3.776781 3.344073
N -3.568186 -2.556078 4.555241
H 4.680783 4.072709 2.843520
N -1.668167 -2.454353 2.538841
H 5.869206 3.937692 1.780731
H 9.718822 1.307632 -1.835067
H 8.785581 1.067190 -0.556771
H 9.994419 3.049908 -0.235994
H 8.448740 3.432765 -0.394887
H 9.453431 3.639914 -1.621873
H 8.472071 0.908129 -5.352041
H 9.551130 1.008005 -4.174992
H 9.850059 2.752130 -5.756698
H 9.524883 3.353234 -4.310641
H 8.381663 3.294049 -5.429320
H 6.607049 3.798976 -7.266088
H 1.725036 4.945697 -7.188819
H 1.377987 -3.782330 4.789261
H 2.422050 -3.288500 3.684480
H 2.582451 -5.572694 3.947051
H 1.029481 -5.742853 3.597931
H 2.054587 -5.247173 2.471495
H 1.879604 -1.551772 0.604427
H -4.422684 -2.824263 8.825216
H 2.578076 -2.652255 1.532689
H -5.449248 -1.862497 8.063300
H 2.489127 -3.445712 -0.683646
H -6.634754 -3.697250 8.863878
H 1.563177 -4.374186 0.232545
H 0.899702 -3.260757 -0.708072
H 0.523489 -1.126376 -0.728805
H -5.625688 -4.710804 8.142549
H 0.701388 0.223796 1.238518
H -2.783680 -4.544344 8.320203
C 2.532872 1.542525 0.060724
H -0.694097 -3.826719 9.030297
C 3.002409 1.581365 1.454268
H -0.441831 -3.051758 7.652530
C 4.327901 1.799612 1.399685
H -1.544221 -2.515388 8.682490
C 4.708488 1.838453 0.034631
Co -3.545146 -1.981238 2.711317
C 6.006276 1.816258 -0.431551
H -6.700373 -1.847700 -0.216877
C 6.381030 1.749674 -1.739648
H -6.338742 -1.531427 5.921914
C 7.731312 1.603560 -2.227958
H -0.756799 -4.043116 5.239400
C 7.654028 1.499985 -3.565738
H -1.232169 -1.742276 -2.483506
C 6.254167 1.640551 -3.924500
H -2.471628 -2.378521 -3.270110
C 5.777340 1.795913 -5.204776
H -1.821277 -0.445742 -4.394480
C 4.543713 2.308238 -5.513267
H -3.256133 -0.162760 -3.744104
C 4.154377 2.818714 -6.789190
H 4.422684 2.824263 -8.825216
H -1.935015 0.419848 -3.054410
C 2.970329 3.443862 -6.624583
H 5.449248 1.862497 -8.063300
H -6.115640 -1.646100 -2.395953
C 2.589742 3.227465 -5.242269
H 6.634754 3.697250 -8.863878
H -4.863056 -1.797763 -3.381906
C 1.348824 3.514145 -4.716873
H -6.172509 -3.776781 -3.344073
C 0.909909 3.088748 -3.487051
H 5.625688 4.710804 -8.142549
H -4.680783 -4.072709 -2.843520
H 2.783680 4.544344 -8.320203
C 0.479744 -3.147934 3.067728
H -5.869206 -3.937692 -1.780731
C 0.557028 -2.480247 1.878309
H -9.718822 -1.307632 1.835067
C 0.794712 2.056700 -1.546969
H 0.694097 3.826719 -9.030297
H -8.785581 -1.067190 0.556771
C 1.216129 1.444499 -0.363519
H 0.441831 3.051757 -7.652530
H -9.994419 -3.049908 0.235994
C 2.184365 1.607259 2.719884
H 1.544221 2.515388 -8.682490
H -8.448740 -3.432765 0.394887
C 2.309769 0.334769 3.552893
H -9.453431 -3.639914 1.621873
C 5.258225 2.119584 2.532511
H -8.472071 -0.908129 5.352041
C 5.517783 3.608472 2.633741
H -9.551130 -1.008005 4.174992
C 8.934317 1.655347 -1.339606
H -9.850059 -2.752130 5.756698
C 9.234703 3.070253 -0.854604
H -9.524883 -3.353234 4.310641
C 8.763709 1.451897 -4.578076
H -8.381663 -3.294049 5.429320
C 9.166168 2.835360 -5.061765
C 6.061687 3.834117 -8.080294
H -6.607049 -3.798976 7.266088
C 1.590883 -3.808223 3.822919
H -1.725036 -4.945697 7.188819
C 1.834400 -5.210182 3.425966
C 1.773156 -2.456202 0.989789
C 1.672541 -3.475304 -0.144617
C 0.246434 0.578909 0.432550