97
Ni1 H38 C53 N4 O1
H -3.238389 5.051671 2.611067
H -3.904298 2.577165 4.286002
C 4.412669 -3.188753 -3.172065
H -2.957468 2.553371 5.583125
C 3.986624 -4.225463 -3.997906
C 4.903095 -5.080890 -4.567532
H -5.041007 3.250176 6.226902
C 6.248489 -4.920002 -4.350075
C 6.681846 -3.893489 -3.563283
C 5.764353 -3.018801 -2.969300
C 0.353910 -3.590974 2.493422
C -0.823344 -4.302508 2.634798
C -1.016232 -5.156802 3.700005
C -0.026942 -5.323355 4.648651
C 1.146333 -4.634482 4.519986
C 1.338692 -3.759793 3.457747
C -2.757780 0.570593 2.884924
C -2.198086 1.420355 4.013184
C -3.325558 2.003859 4.846594
C -5.229306 1.223211 6.029252
C -6.061144 0.144579 6.268885
O -4.071927 0.917863 5.370492
H -5.899469 2.961257 0.445115
C -5.602362 2.504652 6.403407
Ni 1.008466 -0.284607 -1.149364
H 2.078222 -4.887144 0.812578
H 3.966127 1.432819 -4.929550
H -4.181862 1.682082 -0.452208
H -1.511185 -4.201670 1.986090
H -8.503591 1.763659 7.697476
H -7.836674 -0.392470 7.087758
C 1.426373 -2.904366 0.353935
C 2.134565 -4.141620 0.225483
H -0.340182 4.043287 -3.421887
H -2.000485 3.792891 -1.616158
C 2.889891 -4.052112 -0.876442
C 2.674174 -2.749143 -1.443564
C 3.418839 -2.278942 -2.536829
C 3.262792 -0.987303 -3.028101
C 4.072019 -0.425328 -4.076196
C 3.612695 0.806261 -4.310342
H -5.450847 4.571273 2.025971
C 2.476980 1.003405 -3.443716
C 1.649175 2.097899 -3.492229
H 0.943689 2.360759 -6.041646
H 1.433873 3.993435 -7.606851
H 2.775314 5.825521 -7.015873
H 3.591905 5.983010 -4.836495
C -0.930974 2.033317 -1.060385
H 3.051752 4.365064 -3.251942
C -1.568076 1.667353 0.110907
H -1.507562 3.740772 1.758821
C -1.138866 0.515076 0.784417
C -0.150720 -0.397002 0.358746
C -0.189652 -1.421249 1.342726
C -1.145139 -1.104004 2.314242
C 0.551995 -2.630177 1.365191
H -7.059181 3.530031 7.320267
C -7.662129 1.616367 7.281234
C -7.270736 0.347389 6.906076
C 0.527966 2.233861 -2.670111
C -0.374169 3.346482 -2.777607
C -1.270166 3.211654 -1.794381
N 1.753762 -2.040555 -0.705719
N 2.292150 -0.093581 -2.621014
N 0.166027 1.407552 -1.635490
N -1.730577 0.045780 2.006855
C 1.946829 3.174264 -4.501307
C 1.482615 3.100618 -5.786831
C 1.774580 4.069347 -6.722965
C 2.565238 5.155909 -6.375444
H -1.344145 -1.631990 3.077995
C 3.043205 5.247683 -5.083780
C 2.732941 4.280088 -4.141780
C -2.675147 2.540908 0.612957
C -2.404357 3.566288 1.498592
H 3.463056 -4.727389 -1.220396
C -3.429791 4.341270 2.008860
H 4.797498 -0.850209 -4.519118
C -4.738291 4.076145 1.639056
C -5.003623 3.111948 0.724759
C -3.985500 2.347162 0.198481
H 3.059259 -4.343297 -4.169283
H 4.599628 -5.792424 -5.119062
C -6.804455 2.659875 7.036224
H 6.873259 -5.517101 -4.744290
H 7.612356 -3.771124 -3.417031
H 6.075359 -2.306134 -2.423960
H -1.835001 -5.632669 3.781790
H -0.160447 -5.911391 5.382076
H 1.835196 -4.754581 5.161871
H 2.151817 -3.272597 3.390966
H -3.387781 1.117840 2.352725
H -3.267194 -0.185128 3.272618
H -1.614307 0.864045 4.587123
H -1.650372 2.153417 3.635338
H -5.802705 -0.727843 5.998316