142
Si4 H70 C64 N4
Si -9.286114 2.693144 0.251314
Si 9.310256 -2.676850 -0.185959
C -1.836479 -10.122248 -1.480643
C -2.479085 -10.081644 1.521180
Si -2.816453 -9.306457 -0.139080
H -0.515960 1.082746 -0.099883
H 0.523861 -1.085166 -0.007307
H -3.289403 3.974471 0.288148
C -4.666415 -9.499062 -0.521399
C -5.093642 -10.913147 -0.647460
C -5.868653 -11.561049 0.114814
H 3.998168 3.310680 -0.227914
H 5.050346 1.063326 -0.227914
N -0.897110 1.871703 -0.023065
H 3.316723 -3.961002 -0.076247
N 1.851088 0.909383 -0.027398
H 1.101146 -5.078500 -0.040792
H -3.983206 -3.316631 0.073451
N 0.906599 -1.876594 -0.031731
N -1.831006 -0.916923 0.108117
C 1.618409 4.724766 -0.086095
H -5.042446 -1.079869 0.101026
C 2.096832 5.309113 1.058301
H -4.814709 2.210836 -1.750492
C 2.455208 6.663175 1.070119
H -7.090310 2.689260 -1.742613
C 2.361642 7.459370 -0.078216
C 1.930884 6.820296 -1.216703
H -7.275677 1.788906 2.184969
H -5.001841 1.223978 2.161333
C 1.547793 5.482122 -1.234430
H 4.917941 -1.621847 -2.110947
H 7.174122 -2.202664 -2.154280
H 7.197073 -2.335069 1.875726
H 4.953249 -1.741894 1.913150
H -1.276847 -5.014946 -2.002613
H -1.935342 -7.267596 -2.069583
H -2.747426 -7.124599 1.865878
H -2.078339 -4.901960 1.946635
H -10.017343 0.618445 1.158755
H -11.085410 1.760659 1.499513
H -9.731348 1.652970 2.344515
H -9.567166 3.074117 -2.087310
C -9.537154 4.479375 0.806179
H -10.970659 2.661013 -1.437309
H -9.874345 1.539984 -1.752461
C -10.974190 4.885417 0.855421
C 2.042105 10.042151 1.513301
C -11.579722 5.736340 0.039966
C 2.123313 10.139248 -1.482612
Si 2.788163 9.296622 -0.012034
H 10.072909 -0.730320 -1.299430
H 9.566239 -1.801918 -2.372917
H -1.052642 5.054896 0.175875
C 4.616058 9.464865 0.481178
H 11.001510 -1.973162 -1.687461
C 5.013273 10.871889 0.735270
H 11.035052 -2.548682 1.430574
C 5.742383 11.659257 -0.086095
H 9.622732 -2.741111 2.159363
H 10.044663 -1.302310 1.597998
H 9.121359 -5.046723 0.191633
H 9.048977 -4.751901 -1.378218
H 11.331639 -4.582423 -1.476703
H 11.430502 -5.998274 0.731330
H 12.586839 -5.699921 -0.401247
H -0.891990 -10.161087 -1.218673
H -1.924749 -9.606751 -2.309886
H 2.186867 4.791851 1.850120
H -2.173671 -11.031429 -1.624431
H 2.769449 7.053328 1.877696
H -2.840992 -10.992590 1.536938
H 1.893811 7.314608 -2.026250
H -2.904546 -9.548493 2.224363
H 1.237082 5.090204 -2.042007
H -1.511646 -10.113421 1.676786
H -5.188974 -9.068304 0.201481
H -4.871202 -9.024169 -1.364430
H -4.742328 -11.389805 -1.390037
H -6.251745 -11.137353 0.873149
H -6.069908 -12.470230 -0.074277
C -3.252330 1.139238 0.130572
C -2.238990 2.104912 0.095117
C -2.454369 3.533121 0.197542
C -0.245854 3.082944 -0.001398
C 1.132924 3.285965 -0.078216
H -9.139939 4.595892 1.706332
C 2.110955 2.267329 -0.099883
H -9.055200 5.079611 0.183754
C 3.547991 2.475646 -0.180641
H -11.507340 4.493498 1.538907
C 4.119980 1.245162 -0.174732
H -11.090706 6.154740 -0.659278
C 3.074864 0.265365 -0.078216
H 2.056228 11.020182 1.438453
H -12.503026 5.930534 0.154208
C 3.277885 -1.132831 -0.074277
H 2.561132 9.766748 2.297242
C 2.253953 -2.109098 -0.078216
H 1.117035 9.734971 1.607847
C 2.472862 -3.526714 -0.068368
H 2.432258 11.069613 -1.496400
C 1.260032 -4.142838 -0.044731
H 1.143516 10.121594 -1.455037
C 0.250224 -3.083598 -0.027004
H 2.434023 9.680244 -2.292159
C -1.128554 -3.300743 0.020269
C -2.099524 -2.280341 0.069511
C -3.533029 -2.479832 0.079360
C -4.110314 -1.259940 0.101026
C -3.040482 -0.271316 0.124663
C -4.682304 1.594712 0.189663
C -5.316083 2.087258 -0.952763
C -6.675441 2.397969 -0.938975
C -7.441624 2.297341 0.221178
C -6.788426 1.857756 1.371483
C -5.422007 1.513503 1.359665
C 4.706093 -1.611255 -0.111701
C 5.380476 -1.756018 -1.291552
C 6.736303 -2.100271 -1.317158
C 7.470710 -2.296230 -0.127459
C 6.752192 -2.174417 1.050422
C 5.401661 -1.828399 1.079967
H 4.780240 8.929949 1.298604
C -1.615804 -4.721890 -0.028974
H 5.180986 9.094131 -0.241701
C -1.571669 -5.440407 -1.206854
H 4.727278 11.256746 1.554665
C -1.958292 -6.799765 -1.244279
H 6.053093 11.320300 -0.917309
C -2.376692 -7.468852 -0.093974
H 5.945404 12.552549 0.167996
C -2.431419 -6.711495 1.070119
C -2.046562 -5.371557 1.121331
C -1.227416 4.120999 0.136481
C -10.130328 1.545280 1.456180
C -10.010281 2.465054 -1.460946
C 10.078205 -1.678340 -1.547613
C 10.095859 -2.269749 1.442392
C 9.532697 -4.527696 -0.545035
C 10.939721 -4.937268 -0.686854
C 11.698843 -5.585170 -0.080186