88
Zn1 H33 C47 N4 Cl1 O2
Zn 0.056945 -0.605704 0.504398
H 0.625008 1.663376 -0.285504
C 0.936764 -1.113574 5.322460
C -0.129394 -1.431364 6.144491
H -3.213636 2.573681 -1.009189
C 0.059801 -1.616989 7.514084
H -0.141293 -1.164064 -4.856365
H -0.523254 -0.803209 -7.132589
H -0.431631 1.345586 -8.010704
C 1.344902 -1.790289 2.973370
C 2.152850 -2.936560 3.361147
C 2.639522 -3.482743 2.232349
C 2.144520 -2.676240 1.119190
H 3.504585 -2.530264 -2.863201
H -2.274798 0.763466 -3.927742
H 2.351564 -0.806179 -4.227488
H -3.562279 1.112441 -3.041626
H -0.028252 3.167681 -6.609668
H 0.282314 2.832071 -4.314051
H -1.913066 4.964531 0.236445
H -3.556330 6.577241 0.603251
H 2.154040 -5.418589 -0.063484
H 3.598588 -7.224349 -0.408793
H -3.909732 3.114221 -7.153679
C -2.654379 3.575907 1.551727
H -4.316681 4.026011 -5.903041
H 5.809437 -6.835279 -1.061050
N -0.309427 0.645705 2.179800
C 1.317534 -1.495219 8.065822
H 6.554320 -4.659754 -1.407690
H -2.799548 3.994826 -6.410238
C 2.389641 -1.193764 7.254584
H 5.124050 -2.855479 -1.066259
C 2.208775 -1.005169 5.880589
C -4.653425 5.500616 1.934614
C -4.701021 4.297766 2.626623
C -3.711018 3.348851 2.446479
C 0.308492 0.594027 -2.898584
C -0.495886 1.318410 -1.980942
C -0.201979 1.666049 -0.660486
C -1.359759 2.229161 -0.087137
C -2.329534 2.239110 -1.101794
C -1.637008 2.540565 1.282035
N 1.327291 -1.696734 1.604587
C 0.127626 0.801779 -4.357532
C 2.578837 -2.795634 -0.205125
C -0.121065 -0.281974 -5.206068
C 2.256372 -1.875082 -1.230991
C -0.341198 -0.066649 -6.562045
C 2.821578 -1.940719 -2.567598
C -0.297171 1.207481 -7.080728
C 2.189737 -1.001902 -3.310972
C 1.224721 -0.352363 -2.453204
C 0.139525 2.087492 -4.886043
C -2.690076 1.458446 -3.357462
C -0.058000 2.290046 -6.249833
C -2.615112 4.792271 0.853383
C -3.601546 5.745641 1.062549
N -1.829773 1.712975 -2.207502
C 3.489116 -3.946954 -0.517145
Cl -1.893552 -1.523286 -0.188565
C 3.051230 -5.258209 -0.332778
C 3.907964 -6.336319 -0.536782
C -2.917349 2.705846 -4.180309
C 5.216863 -6.104659 -0.929032
C 5.658319 -4.812709 -1.128722
C -3.612255 3.463196 -6.287548
C 4.807535 -3.739054 -0.925828
H -0.359046 1.213421 5.342907
O -2.786459 3.836079 -3.778804
O -3.336078 2.364147 -5.395775
H -1.554904 2.958296 4.067274
H -0.998027 -1.523434 5.773781
H -0.681512 -1.827859 8.068754
N 1.326577 -0.876420 -1.164951
H 2.307538 -3.243064 4.246925
H 3.198779 -4.248409 2.171384
C -1.042054 1.826132 2.317166
H -5.335242 6.151046 2.055981
C -1.124157 2.191739 3.708171
H -5.417346 4.125506 3.227135
H 1.444854 -1.619959 8.998671
C -0.474468 1.240893 4.400136
H -3.747905 2.535071 2.934516
H 3.258274 -1.112089 7.630895
C 0.019344 0.268367 3.451208
H 2.953658 -0.803209 5.327634
C 0.745188 -0.890527 3.844133