91
Zn1 H35 C48 N4 Cl1 O2
C -5.605680 4.814058 1.960771
C -4.749766 3.895310 1.372233
C -4.650521 -2.456589 -2.045257
C -5.120232 -3.613207 -1.434830
C -6.703469 -3.944554 -3.216376
C -6.243115 -2.802349 -3.831229
C -5.217634 -2.067054 -3.251413
C 2.275059 -2.859863 -2.791880
C 4.320918 -3.102716 -4.057468
C 3.401203 -2.306406 -3.398147
C 3.070009 2.716334 1.412023
C 4.119593 2.873387 0.506873
H -7.402860 -4.451003 -3.611588
C 5.329102 3.399636 0.905291
C 5.515824 3.785400 2.226122
C 4.465957 3.677106 3.125006
C 3.249784 3.147893 2.734902
C 4.086417 -0.180934 1.534039
C 5.492005 0.081450 1.021312
H 7.729123 1.222308 1.031113
H 8.096328 1.024308 2.577716
N -0.592121 1.722427 0.960488
H 9.399270 -0.360347 1.249981
N -2.864825 0.111756 0.101820
H 8.462116 -1.237205 2.205460
N -1.031066 -1.455813 -1.514324
H 8.080733 -1.049980 0.663397
N 3.102193 -0.147934 0.450390
Cl -0.096890 -1.462144 1.910547
O 6.304111 0.242544 2.073139
O 5.825893 0.121589 -0.130783
H -6.448693 -5.140637 -1.584854
Zn -0.901566 -0.226595 0.206691
H 0.858553 4.352596 2.148638
H -1.594209 4.380882 2.448569
H 1.350523 -4.655738 -2.430216
H -5.670331 1.171124 1.245699
H 2.893070 -5.979780 -3.562429
H -5.928367 -0.780592 -0.241694
H 4.744693 -5.022106 -4.584748
H -2.675976 -3.384227 -3.486093
C 7.695096 0.583858 1.787545
H -0.238810 -3.544513 -3.852305
C 8.474876 -0.616265 1.448732
H 0.732371 0.721246 -1.267922
H 3.535325 -1.946144 -0.413049
H -3.413223 2.702595 4.075075
H -4.867867 4.223290 5.063037
H -6.234608 5.570230 3.736883
H -6.163719 5.357414 1.417949
H -4.731760 3.811127 0.426197
H -4.740266 -3.900105 -0.612772
H -6.627334 -2.516798 -4.652320
H -4.899058 -1.285694 -3.687780
H 5.086378 -2.712104 -4.462990
H 3.539578 -1.367858 -3.357649
H 3.998939 2.613697 -0.398264
H 6.034874 3.498636 0.277596
H 6.356710 4.120923 2.511608
H 4.584483 3.970065 4.021051
H 2.538624 3.077044 3.360808
H 3.851490 0.503042 2.210946
H 4.058486 -1.067490 1.974056
C 0.585347 2.422566 1.222550
C 0.250041 3.674143 1.881696
C -1.086643 3.689498 2.041168
C -1.613349 2.457721 1.477471
C -2.984769 2.132839 1.484489
C -3.553583 1.025251 0.846873
C -4.972499 0.711548 0.792596
C -5.112009 -0.347551 -0.018107
C -3.793614 -0.711359 -0.491158
C -3.514311 -1.672266 -1.443631
C -2.217749 -1.957144 -1.950440
C -6.136781 -4.351330 -2.012314
C -2.003239 -2.908353 -3.013200
C -0.677613 -2.998733 -3.210947
C -0.046700 -2.109887 -2.265116
C 1.314937 -1.967650 -2.095431
C 1.858231 -0.980074 -1.205802
C 1.329257 0.269078 -0.838554
C 2.101664 -4.252869 -2.850718
C 2.088621 0.781993 0.200512
C 3.021379 -5.039751 -3.518726
C 2.966086 -1.186425 -0.384228
C 4.121436 -4.473632 -4.122639
C 1.864895 1.980770 0.957131
C -3.919371 3.097383 2.143741
C -3.975232 3.238273 3.526852
C -4.836250 4.146515 4.116906
C -5.648781 4.940132 3.333279