142
Ni2 H52 C80 N8
H 6.815826 -1.845001 -6.254450
C -2.298250 1.433852 -8.016856
C -2.461694 0.866258 -9.273790
C -3.045847 -0.376241 -9.430089
C -3.452319 -1.060197 -8.299873
C -3.307188 -0.490018 -7.037980
C -3.246440 -0.963228 -10.815285
Ni 2.718925 -2.391908 2.303313
Ni -2.718925 2.391908 -2.303313
H 5.437039 -6.352131 0.810448
H -5.437039 6.352131 -0.810448
H 5.375545 -4.892421 -1.160605
H -5.375545 4.892421 1.160605
H 2.252017 -0.874016 -2.452133
H -2.252017 0.874016 2.452133
H -0.497168 1.225691 3.700446
H 0.497168 -1.225691 -3.700446
H -7.865951 8.038103 -3.679792
H -0.824954 -0.774461 -5.714179
H -4.286924 9.403430 -4.774683
H -4.058015 3.211621 -7.078336
H -3.321023 7.407156 -4.134591
H -4.735674 5.255732 -5.904299
H 0.824954 0.774461 5.714179
H -6.546111 9.735711 -4.512181
H 4.058015 -3.211621 7.078336
H 4.735674 -5.255732 5.904299
H 4.110017 -3.900749 -5.230827
H -4.110017 3.900749 5.230827
H 3.247930 -4.050728 -3.095243
H -3.247930 4.050728 3.095243
C 5.881303 -1.594174 -3.856965
H -6.005939 3.114652 6.693709
H 6.005939 -3.114652 -6.693709
H 5.349546 -1.693729 -6.788681
H -5.349546 1.693729 6.788681
H 6.910689 -6.018557 3.088008
H -6.910689 6.018557 -3.088008
C 5.945477 -2.249686 -6.280791
H 1.888633 -2.265201 7.936291
H -1.888633 2.265201 -7.936291
H 7.865951 -8.038103 3.679792
C 4.335247 -4.826482 1.802093
C -4.335247 4.826482 -1.802093
C -5.029707 5.518196 -0.750651
C 5.029707 -5.518196 0.750651
C 4.977260 -4.726927 -0.336951
C -4.977260 4.726927 0.336951
C 4.190991 -3.577518 0.010565
C -4.190991 3.577518 -0.010565
C 3.785464 -2.611705 -0.892585
C -3.785464 2.611705 0.892585
C 2.750433 -1.733810 -0.587843
C 2.014933 -0.995551 -1.561503
C -2.014933 0.995551 1.561503
C 0.898908 -0.499585 -0.949520
C -0.898908 0.499585 0.949520
C 1.037869 -0.847252 0.442777
C -1.037869 0.847252 -0.442777
C 0.234314 -0.278237 1.427583
C -0.234314 0.278237 -1.427583
C 0.640818 -0.306423 2.766623
C -0.640818 0.306423 -2.766623
C 0.176959 0.590866 3.787867
C -0.176959 -0.590866 -3.787867
C 0.903002 0.338746 4.895876
C -0.903002 -0.338746 -4.895876
C 1.811404 -0.717572 4.583880
C -1.811404 0.717572 -4.583880
C 2.621962 -1.360155 5.514367
C -5.010512 6.509868 -3.526722
C -2.621962 1.360155 -5.514367
C -3.256325 2.562574 -5.222801
C -6.373924 6.705099 -3.412423
C -3.920794 3.401681 -6.178564
C -6.948509 7.911396 -3.775543
C -4.310377 4.518766 -5.528503
C -6.163948 8.921169 -4.274205
H -5.694193 1.126136 1.907534
C -3.946272 4.357151 -4.152285
H -6.554890 0.977450 4.032850
C -4.371201 5.213066 -3.140090
C -4.368379 2.585846 2.272959
C -4.238176 7.526105 -4.040683
C -5.363542 1.683386 2.574805
C -4.815876 8.725938 -4.418981
C 4.368379 -2.585846 -2.272959
C 5.363542 -1.683386 -2.574805
C -5.420342 2.398372 4.879543
H -6.815826 1.845001 6.254450
C -4.428250 3.331863 4.566907
C 3.908668 -3.423660 -3.281927
C -3.908668 3.423660 3.281927
C 4.428250 -3.331863 -4.566907
C 5.420342 -2.398372 -4.879543
C 2.740438 -0.769289 6.877394
C -2.740438 0.769289 -6.877394
H 6.546111 -9.735711 4.512181
H 4.286924 -9.403430 4.774683
C -2.750433 1.733810 0.587843
C 5.010512 -6.509868 3.526722
C 6.373924 -6.705099 3.412423
C 6.948509 -7.911396 3.775543
N 3.797722 -3.649922 1.337004
N -3.797722 3.649922 -1.337004
N 2.152497 -1.626497 0.652273
N -2.152497 1.626497 -0.652273
N 1.654826 -1.099890 3.255849
N -1.654826 1.099890 -3.255849
N 3.295295 -3.153957 3.961438
N -3.295295 3.153957 -3.961438
C 4.238176 -7.526105 4.040683
C 4.815876 -8.725938 4.418981
C 6.163948 -8.921169 4.274205
C -5.881303 1.594174 3.856965
H 3.321023 -7.407156 4.134591
C -5.945477 2.249686 6.280791
H 2.173696 -1.333004 10.025163
H 3.826843 1.907062 8.383012
H 3.594561 0.960642 6.288154
H 3.923666 0.464159 11.278984
H 2.422689 0.916682 11.304920
H 3.521534 1.879910 10.737932
C 3.256325 -2.562574 5.222801
C 3.920794 -3.401681 6.178564
C 4.310377 -4.518766 5.528503
C 3.946272 -4.357151 4.152285
C 4.371201 -5.213066 3.140090
C 2.298250 -1.433852 8.016856
C 2.461694 -0.866258 9.273790
C 3.045847 0.376241 9.430089
C 3.452319 1.060197 8.299873
C 3.307188 0.490018 7.037980
C 3.246440 0.963228 10.815285
H -2.173696 1.333004 -10.025163
H -3.826843 -1.907062 -8.383012
H -3.594561 -0.960642 -6.288154
H -3.923666 -0.464159 -11.278984
H -2.422689 -0.916682 -11.304920
H -3.521534 -1.879910 -10.737932
H 5.694193 -1.126136 -1.907534
H 6.554890 -0.977450 -4.032850