73
Ni1 H28 C40 N4
Ni -0.727152 -0.239848 0.285629
C 0.142750 1.937405 -3.202338
H -0.002090 2.164772 -4.093099
C 1.149586 2.365700 -2.407015
C 0.983607 1.757627 -1.123895
H 1.828377 2.952622 -2.650914
C 1.840904 1.965606 -0.057102
C 1.659266 -3.771430 3.766808
C 1.782185 1.177755 1.096646
N -2.352416 -0.604163 -0.714569
H -1.102875 -3.279684 4.299144
C 2.665319 4.276282 -0.563988
H 6.193156 3.171176 -0.385835
H 4.498134 1.683601 0.010765
C 3.697990 5.166360 -0.858787
N -0.117179 0.929238 -1.138741
H -3.374126 -3.239145 3.370208
N 0.876346 0.151962 1.302369
C 1.335921 -0.503699 2.445513
H -4.452990 -2.125226 1.245106
C 5.018776 4.759216 -0.782436
N -1.326007 -1.411402 1.705332
C 0.722111 -1.599993 3.058441
H -5.388579 -1.525966 -1.142983
C 1.929374 -1.943686 5.283223
C -0.579102 -1.950736 2.729708
H -4.432634 -0.526612 -3.164162
C 2.955782 2.950860 -0.235254
H 2.468806 -5.495184 4.437000
C -1.385509 -2.805563 3.552602
H -2.068216 -1.043033 -4.994464
C -2.631135 -2.789700 3.037233
H -2.671064 -0.546000 -7.170467
C -2.589640 -1.947211 1.872880
H 1.782185 4.565337 -0.587317
H -3.287222 3.266353 -6.110037
C -3.618397 -1.800921 0.992724
H -2.701598 2.760507 -3.946759
C 5.308457 3.451418 -0.443099
C -3.508006 -1.210473 -0.243738
C 4.289878 2.566628 -0.192837
H -2.798680 2.365700 -8.669915
C -4.522670 -1.201661 -1.238421
H -4.308150 2.161246 -8.298764
C -4.004377 -0.639414 -2.345510
H -3.458682 0.952151 -8.824737
C -2.293697 0.812911 -4.241559
H 2.917419 -2.442482 6.960824
C -2.307006 -0.172343 -5.217155
H 3.497563 6.040575 -1.109049
C -2.674979 0.127287 -6.527846
C 2.344321 -4.599819 4.653328
H 3.420054 1.858091 2.269481
C -3.046866 1.419221 -6.890513
H 4.152867 -4.458816 7.374391
H 3.020764 -0.126517 3.671370
C -3.042951 2.395663 -5.895830
H 4.197493 -5.578023 6.280027
C 2.755354 1.218293 2.150713
C -2.682808 2.094270 -4.593622
H 3.012935 -5.532197 7.304403
C 2.513432 0.143150 2.939673
C -3.438326 1.754102 -8.296643
H 5.706180 5.360238 -0.956347
C -1.853696 0.499181 -2.858758
C 1.449444 -2.410756 4.057366
H 1.335138 -4.123936 2.969365
C 2.609731 -2.784413 6.152776
C 2.845390 -4.115123 5.851614
C -0.651913 1.064953 -2.400652
C -2.653840 -0.242844 -2.016777
C 3.622830 -5.001675 6.786913
H 1.790797 -1.055371 5.520760