171
Fe2 H48 C96 N8 O17
C -6.840029 3.597017 -1.831337
C 6.840029 3.597017 1.831337
C -3.210094 -4.873020 -2.711549
Fe -0.004981 -0.005570 -1.759750
Fe 0.004981 -0.005570 1.759750
C 3.210094 -4.873020 2.711549
C 5.878558 -3.974193 -1.584859
C -5.878558 -3.974193 1.584859
H -2.603094 4.386168 -2.732452
H 2.603094 4.386168 2.732452
C 4.159115 8.166715 -1.335211
C -4.159115 8.166715 1.335211
H 3.599196 4.223538 -3.506055
H -3.599196 4.223538 3.506055
C -2.587530 -6.260728 -0.397698
C 2.587530 -6.260728 0.397698
H -0.225679 5.078336 -2.683552
H 0.225679 5.078336 2.683552
C -3.470793 -6.796811 -1.276825
C 3.470793 -6.796811 1.276825
H 1.229563 4.848274 -0.268519
H -1.229563 4.848274 0.268519
H -3.805421 3.630534 -0.624606
C -8.194884 4.251304 -1.667701
H 3.805421 3.630534 0.624606
C 8.194884 4.251304 1.667701
C -3.807366 -6.100081 -2.451647
C 3.807366 -6.100081 2.451647
H -7.389053 2.343379 -3.319346
H 2.552511 -4.376007 -2.924781
H -2.552511 -4.376007 2.924781
C 8.157919 -4.274860 -2.598610
C -8.157919 -4.274860 2.598610
H -5.093349 -0.228948 -1.554449
H 5.093349 -0.228948 1.554449
C -4.087520 -8.136325 -1.041294
C 4.087520 -8.136325 1.041294
H -4.369619 -2.604929 -1.501261
H 4.369619 -2.604929 1.501261
N -0.600385 1.930458 -2.244841
N 0.600385 1.930458 2.244841
N 0.571980 -1.946477 -2.253718
N -0.571980 -1.946477 2.253718
H 4.396856 2.583357 -1.700595
H -4.396856 2.583357 1.700595
N 1.931115 0.583011 -2.227880
N -1.931115 0.583011 2.227880
H 5.093349 0.215309 -1.827712
H -5.093349 0.215309 1.827712
N -1.966912 -0.593873 -2.159785
N 1.966912 -0.593873 2.159785
H 0.194551 -5.095942 -2.712079
H -0.194551 -5.095942 2.712079
O 0.000000 -0.002258 0.000000
H -1.342403 -4.719117 -0.062616
H 1.342403 -4.719117 0.062616
H 4.003863 -3.656073 -0.887462
H -4.003863 -3.656073 0.887462
O 3.865342 8.749604 -0.229000
O -3.865342 8.749604 0.229000
O 8.388268 -5.282371 -1.951458
O -8.388268 -5.282371 1.951458
H -5.322920 1.298185 -3.565802
H 5.070003 -1.252326 -3.975376
H -5.070003 -1.252326 3.975376
O -8.238074 5.203283 -0.842218
O 8.238074 5.203283 0.842218
H 7.167265 -2.289586 -4.043705
O 4.808137 8.683561 -2.229513
H -7.167265 -2.289586 4.043705
O -4.808137 8.683561 2.229513
O -9.169585 3.816964 -2.313697
O 9.169585 3.816964 2.313697
H 4.618644 6.276243 -3.139178
O 4.770783 -8.672408 1.852241
O -4.770783 -8.672408 -1.852241
H -4.618644 6.276243 3.139178
H 2.264575 6.889080 0.089643
O 8.978925 -3.715572 -3.409365
H -2.264575 6.889080 -0.089643
O -8.978925 -3.715572 3.409365
H -5.883227 4.667795 -0.384438
O -3.813981 -8.676970 0.091563
H 5.883227 4.667795 0.384438
O 3.813981 -8.676970 -0.091563
H -3.435773 -4.395840 -3.502052
H 6.089451 -4.671518 -0.974901
H -6.089451 -4.671518 0.974901
H -2.389088 -6.718273 0.411262
H 2.389088 -6.718273 -0.411262
H -4.435766 -6.464412 -3.062333
H 4.435766 -6.464412 3.062333
C -1.887924 2.398118 -2.358054
C 1.887924 2.398118 2.358054
C 1.855629 -2.405807 -2.443682
C -1.855629 -2.405807 2.443682
C 1.627226 3.020078 -2.124882
C -1.627226 3.020078 2.124882
H 7.389053 2.343379 3.319346
C 0.219065 3.025631 -2.313855
C -0.219065 3.025631 2.313855
C 2.397259 1.856283 -2.063479
C -2.397259 1.856283 2.063479
C -0.256418 -3.033915 -2.301034
C 0.256418 -3.033915 2.301034
C -2.419827 -1.867741 -1.970456
C 2.419827 -1.867741 1.970456
C -1.853294 3.819740 -2.588870
C 1.853294 3.819740 2.588870
C -3.048227 1.623247 -2.181053
C 3.048227 1.623247 2.181053
C 3.030329 -0.244219 -2.176401
C -3.030329 -0.244219 2.176401
C 3.316708 4.766365 -2.779002
C -3.316708 4.766365 2.779002
C -1.633062 -3.030147 -2.071821
C 1.633062 -3.030147 2.071821
H 5.322920 1.298185 3.565802
C 2.289478 4.325876 -1.938690
C -2.289478 4.325876 1.938690
C -3.061068 0.228795 -2.023029
C 3.061068 0.228795 2.023029
C 3.005426 -1.643827 -2.346792
C -3.005426 -1.643827 2.346792
C -0.557195 4.196962 -2.561558
C 0.557195 4.196962 2.561558
C 1.915551 5.137835 -0.860530
C -1.915551 5.137835 0.860530
C -4.535377 3.357634 -1.168970
C 4.535377 3.357634 1.168970
H 3.435773 -4.395840 3.502052
C -6.661042 2.602992 -2.766680
C 6.661042 2.602992 2.766680
C 1.810104 -3.820885 -2.712327
C -1.810104 -3.820885 2.712327
C -4.213978 -0.555794 -1.711034
C 4.213978 -0.555794 1.711034
C -3.819817 -1.850883 -1.680724
C 3.819817 -1.850883 1.680724
C 3.834214 1.834665 -1.855365
C -3.834214 1.834665 1.855365
C 4.206974 0.545923 -1.925756
C -4.206974 0.545923 1.925756
C -2.294536 -4.343283 -1.835598
C 2.294536 -4.343283 1.835598
C 0.523732 -4.211791 -2.605311
C -0.523732 -4.211791 2.605311
C -4.357946 2.344172 -2.094306
C 4.357946 2.344172 2.094306
C -1.983254 -5.067184 -0.669857
C 1.983254 -5.067184 0.669857
C 4.645882 -3.371074 -1.529069
C -4.645882 -3.371074 1.529069
C 4.334211 -2.331037 -2.422256
C -4.334211 -2.331037 2.422256
C -5.433036 1.977264 -2.911544
C 5.433036 1.977264 2.911544
C 6.827578 -3.578725 -2.528366
C -6.827578 -3.578725 2.528366
C 5.273504 -1.944494 -3.357912
C -5.273504 -1.944494 3.357912
C 6.522133 -2.567247 -3.401637
C -6.522133 -2.567247 3.401637
C 3.924875 5.990054 -2.557235
C -3.924875 5.990054 2.557235
C 2.529165 6.351608 -0.646783
C -2.529165 6.351608 0.646783
C 3.548224 6.805980 -1.509288
C -3.548224 6.805980 1.509288
C -5.771165 3.979990 -1.029367
C 5.771165 3.979990 1.029367