13
H8 C4 O1
H 1.676309 -1.132400 0.552214
H 0.169290 -1.676337 0.718490
H 1.089572 0.979739 1.206239
H 0.114710 0.082697 2.149153
H -1.724337 0.147606 0.482086
H -1.183084 1.657389 0.391420
C 0.715092 -0.909113 0.434692
H -0.270383 1.358808 -1.307704
C 0.373966 0.294300 1.217438
H -1.410501 0.233286 -1.439339
C -0.942022 0.713612 0.249770
C -0.619089 0.518885 -0.912941
O 0.451288 -0.567691 -0.915816