103
Ni1 H34 C58 N10
N 2.475186 -5.868512 -2.287676
H -3.851675 -2.063981 -2.745055
H -0.394152 -3.832636 3.879828
H -1.044312 -5.745112 5.022746
H -2.182949 -1.921258 -1.192448
H 1.545229 -1.791711 2.083172
H -4.416087 -0.191028 -3.982235
H 3.201642 -1.764264 3.655493
H -2.539528 -7.192094 4.081112
C -0.135948 -3.048324 0.487438
C -1.080446 -2.911420 1.523464
C -1.525384 -4.142343 2.251180
C -3.405387 -1.260346 -2.620511
C -1.011610 -4.418016 3.494425
C -1.400180 -5.557377 4.183204
C -2.389175 -1.167686 -1.692588
C 2.025746 -1.005642 2.210408
C -3.727869 -0.163581 -3.357233
C 3.019024 -1.000152 3.143700
C -2.299567 -6.418101 3.624001
N -1.686096 -0.051490 -1.470934
N 0.487550 -6.654251 1.036990
H -3.440495 -6.745264 2.010604
H -2.959011 -2.268183 3.531307
H -2.819789 -4.831691 0.866472
C -2.725383 -0.267988 3.296496
C -1.605077 -1.694770 1.972286
C -2.828838 -6.159006 2.388192
C -2.546072 -1.573126 3.069710
C -2.452207 -5.014375 1.698289
N -1.273032 -0.447269 1.516779
H 3.440495 6.745264 -2.010604
H 2.959011 2.268183 -3.531307
H 2.819789 4.831691 -0.866472
C 2.725383 0.267988 -3.296496
C 1.605077 1.694770 -1.972286
C 2.828838 6.159006 -2.388192
C 2.546072 1.573126 -3.069710
C 2.452207 5.014375 -1.698289
N 1.273032 0.447269 -1.516779
Ni 0.000000 0.000000 0.000000
H 0.394152 3.832636 -3.879828
H 3.851675 2.063981 2.745055
H 1.044312 5.745112 -5.022746
H -1.545229 1.791711 -2.083172
H -3.201642 1.764264 -3.655493
H 2.182949 1.921258 1.192448
H 2.539528 7.192094 -4.081112
H 4.416087 0.191028 3.982235
C 0.135948 3.048324 -0.487438
C 1.080446 2.911420 -1.523464
C 1.525384 4.142343 -2.251180
C 1.011610 4.418016 -3.494425
C 3.405387 1.260346 2.620511
C 1.400180 5.557377 -4.183204
C -2.025746 1.005642 -2.210408
C -3.019024 1.000152 -3.143700
C 2.389175 1.167686 1.692588
C 2.299567 6.418101 -3.624001
C 3.727869 0.163581 3.357233
N -0.487550 6.654251 -1.036990
N 1.686096 0.051490 1.470934
H -1.949266 4.093927 6.128434
H -3.242254 0.117471 3.978726
H 1.949266 -4.093927 -6.128434
H 3.242254 -0.117471 -3.978726
H -0.895477 3.024610 4.362796
H -4.464632 2.398828 2.643455
H 0.895477 -3.024610 -4.362796
H 4.464632 -2.398828 -2.643455
H -5.489200 3.520843 4.424113
H 5.489200 -3.520843 -4.424113
H -4.220601 4.348631 6.132595
C -1.990839 4.993735 1.756345
C -2.459245 3.765667 5.415175
H 4.220601 -4.348631 -6.132595
C -1.877698 1.843749 2.228358
C 1.990839 -4.993735 -1.756345
C 2.459245 -3.765667 -5.415175
C 1.877698 -1.843749 -2.228358
C -2.574893 2.605336 3.318889
C -1.273288 3.991058 1.025952
C -0.434724 5.593058 -0.643214
C 2.574893 -2.605336 -3.318889
C 1.273288 -3.991058 -1.025952
C 0.434724 -5.593058 0.643214
C -1.931669 0.451002 2.316295
C -1.822447 3.111341 4.364919
C 1.931669 -0.451002 -2.316295
C -3.949284 2.751242 3.338622
C 1.822447 -3.111341 -4.364919
C 3.949284 -2.751242 -3.338622
C -1.174568 2.560544 1.240862
C 1.174568 -2.560544 -1.240862
C -0.485330 4.286932 -0.064995
C 0.485330 -4.286932 0.064995
C -4.560102 3.415449 4.402247
C 4.560102 -3.415449 -4.402247
C -3.820853 3.908389 5.423073
N -0.327496 2.024787 0.303404
C 3.820853 -3.908389 -5.423073
N 0.327496 -2.024787 -0.303404
N -2.475186 5.868512 2.287676