213
Cd8 H91 C93 S15 N3 O3
C 2.363726 4.572642 1.562994
H -2.989953 1.984424 -4.185353
C 3.480459 4.452012 2.328408
H -4.498830 -1.609634 -3.664687
C 3.593961 3.133954 -2.550312
H -6.052651 -0.704911 5.216935
H -3.838292 2.860763 3.910590
C 4.662903 3.935788 -2.332734
H -5.950728 2.715298 4.842012
H -7.762929 2.165368 3.549388
H -7.473762 1.714781 1.317595
C 3.328161 4.171725 -4.722186
H -5.365702 1.819445 0.364236
C 2.951896 3.222653 -3.765655
H -5.316858 -0.451233 3.042422
C 0.158083 -0.875212 -5.180824
H -5.175211 -2.320995 6.566470
H -3.388649 -3.575190 5.825663
H -2.549622 -3.255876 3.696146
H 0.833842 -5.457369 0.433904
C 0.896478 -2.044256 -5.318467
H 1.672993 -7.573712 0.778033
S -0.777268 3.409274 -2.156397
H -1.128648 -4.210270 -4.256095
H -5.475381 -4.841802 -2.764132
H -3.891964 -3.890956 -1.358064
H 2.433759 0.512031 8.250986
S -0.408793 0.182605 3.930103
H -2.593259 -0.217070 5.584150
S 2.782555 -2.344234 -1.480663
H -3.818286 1.042447 7.080582
S 3.395536 0.009111 2.188651
H -3.279088 3.252810 7.413709
S 0.926515 3.545870 1.752342
S 3.183452 1.930318 -1.333684
S 0.257689 0.203006 -3.777595
S 0.219567 -0.017321 0.097463
N 2.334068 2.227457 7.252482
N 5.667745 0.987454 -5.183651
N 5.698504 -4.577481 1.656268
O 2.328364 2.278902 5.009388
O 4.028611 -0.114180 -4.177807
O 3.772699 -3.420855 1.620781
H 5.300960 5.223688 2.693801
H 5.152235 6.969272 1.237595
H 3.365683 7.100545 -0.172686
H 1.583873 5.649440 0.069592
H 5.803877 5.397537 -3.164054
H 4.609165 5.617509 -5.087419
H -3.435334 1.798157 -6.458444
H -4.655566 0.047251 -7.245154
H -5.036201 -1.691237 -5.909986
C 4.793507 -1.547545 6.233351
C 0.762271 -2.819480 -6.464477
H -2.710685 -5.161116 -5.662331
H -4.884052 -5.476883 -4.914231
H 1.017474 5.299968 -3.151850
C -3.784340 4.602444 -3.976456
C -3.079275 -6.815164 0.517936
C -3.970898 -7.970371 0.530989
C -0.580144 5.154503 -1.869621
C -3.517158 -9.068989 -0.001789
C -1.356481 5.872960 -1.012971
C -2.368948 -9.193344 -0.778364
C -1.629821 -8.008157 -0.913982
C -1.198587 7.238915 -0.890777
C -0.165314 7.859803 -1.559757
C -1.956536 -6.826517 -0.243772
C 0.746493 7.136024 -2.372840
C 0.489236 5.793131 -2.564267
C -3.756418 0.229970 -3.674546
C -3.417923 1.226940 -4.513779
Cd 2.123449 -1.867622 0.950430
Cd 2.455775 -0.141144 -2.609692
Cd 1.557130 1.480315 3.034218
Cd 0.809852 2.370882 -0.502910
C -4.318781 -0.876986 -4.208040
C -5.366565 -1.245971 4.900158
C -4.384915 2.371148 2.026671
H 2.457031 0.739099 6.036961
C -4.565790 2.630148 3.379077
H 1.982813 4.045774 6.587462
C -5.834992 2.544997 3.935757
H 3.012422 3.999650 7.769553
C -6.915456 2.211491 3.169541
H 1.482408 3.808062 8.053240
C -6.740743 1.945396 1.842080
H -1.209046 0.300929 -6.096960
H 1.853669 1.691719 9.104773
C -5.475054 2.014581 1.266622
H -1.432301 -0.994067 -8.008779
C -3.854081 -1.836702 3.149886
H -0.200760 -2.945431 -8.237215
C -4.912805 -1.073896 3.602929
H 4.021533 0.708941 -5.538385
C -4.830402 -2.186173 5.713087
C -3.773477 -2.938336 5.267413
H 6.658427 2.527258 -5.720351
C -3.277879 -2.753843 3.988992
H 3.393831 1.613664 8.817422
C 0.968070 -4.834706 2.336446
H 6.982350 1.766226 -3.939699
C 1.090628 -5.716368 1.289107
H 7.171746 0.226422 -4.165025
C 1.595605 -6.986529 1.496296
H 6.004276 0.747968 -3.257577
H 5.421177 -2.697076 1.712069
H 4.204240 -5.771361 1.284822
H 5.242253 -6.358544 2.300179
C -2.352750 -3.956593 -2.668576
H 5.583510 -6.308873 0.771173
C -1.998675 -4.337996 -3.958715
H 7.430774 -3.621313 1.786850
H 7.499913 -4.910987 0.898555
C -4.249898 -5.095480 -4.352031
H 7.452811 -5.035165 2.460495
C -4.603974 -4.714077 -3.063799
C -3.655560 -4.146407 -2.221725
C -1.337937 1.250001 5.028641
H -5.431531 6.942662 -2.444768
C -2.383285 0.678784 5.720449
H -4.730651 8.177343 -4.279496
C -3.113422 1.427398 6.610123
H -3.436152 7.175052 -5.924492
H -2.844442 4.939853 -5.734748
C -2.793218 2.749003 6.802923
C -1.778653 3.330865 6.111404
H -2.000963 5.438338 -0.503383
C -3.709309 1.125823 -5.877300
C -4.378452 0.066765 -6.357181
C 4.534368 5.331900 2.177799
C -4.633815 -0.926657 -5.564505
C 4.465074 6.344835 1.290685
C 3.393025 6.440629 0.482676
C 2.327544 5.562516 0.621752
C 5.059008 4.860024 -3.309771
C 4.362597 4.973558 -4.464392
H 6.876752 1.269515 -6.630725
H 5.545205 2.090862 -6.734689
H 2.289252 -8.246046 2.844899
H 2.171909 -6.771879 4.642203
H 1.338932 -4.625378 4.289328
S -4.963966 4.270535 -1.598257
S -3.462690 -5.378073 1.377038
S -3.432359 0.281770 -1.926730
C -2.948469 -4.905665 -4.798502
S -2.753351 2.560076 1.337647
S -3.342562 -1.564575 1.461876
H -1.586831 4.232040 6.236527
S 0.301278 -3.205318 2.125962
H -0.334089 2.981393 4.758940
S -1.097179 -3.298096 -1.616316
H 4.486511 -4.502975 -1.978369
H 6.792337 -4.829385 -2.039447
H 8.193193 -3.027034 -1.645587
H 7.363639 -1.025999 -0.982548
H 5.087536 -0.706685 -0.913595
H 2.445110 -1.975071 4.079222
H 3.182703 -2.679336 6.160776
H 5.098352 -1.870407 7.052532
H 6.259505 -0.208200 5.967020
H 5.544773 0.558154 3.887671
H 3.534862 3.770809 2.959826
H 5.133626 3.875473 -1.532481
H 2.864450 4.240910 -5.524394
H 2.252548 2.639018 -3.953535
H 1.480053 -2.306803 -4.644466
C 2.379195 1.665109 6.075144
C 2.190783 3.635987 7.429227
C 2.519428 1.445138 8.457067
C 4.614043 0.476551 -4.860749
C 6.228338 1.776869 -6.136296
C 6.526307 0.927139 -4.042619
C -0.714519 -0.481391 -6.188769
C 4.961117 -3.504231 1.665000
C -0.848197 -1.258389 -7.334622
C 5.137320 -5.854738 1.489300
C -0.109802 -2.427433 -7.471417
C 7.142757 -4.533132 1.704396
C -4.558407 5.202400 -2.990873
C -4.912850 6.541568 -3.104123
C -4.493279 7.280958 -4.202971
C -3.718096 6.681889 -5.188800
C -3.363600 5.342544 -5.075535
Cd -3.072075 2.746875 -1.221963
Cd -1.870493 -3.592504 0.789654
Cd -1.690858 0.295323 1.733040
Cd -1.144824 -0.792066 -1.887886
H 1.256797 -3.601799 -6.556286
C 1.973243 -7.382123 2.718380
C 1.894210 -6.507558 3.795232
C 1.389135 -5.223205 3.577809
C -1.036304 2.587572 5.223825
C 4.553745 -2.551611 -1.492127
C 5.063726 -3.796936 -1.797279
H -3.547232 3.706946 -3.900009
C 6.437348 -3.992072 -1.837903
H -4.820868 -7.924957 0.903972
C 7.272339 -2.915274 -1.568975
C 6.787385 -1.721394 -1.205348
H -4.007406 -9.844390 0.152184
H -2.114269 -9.995177 -1.177733
C 5.426073 -1.535127 -1.167232
H -1.782563 7.733851 -0.364471
C 3.923739 -0.641048 3.765396
H -0.062133 8.780492 -1.475055
H 1.484286 7.549359 -2.759699
C 3.669106 -2.038934 5.695593
C 3.217061 -1.611408 4.448888
H -1.420804 -6.069388 -0.320453
H -0.886686 -8.010108 -1.474397
C 5.492865 -0.566541 5.579091
C 5.066108 -0.103536 4.331255