53
H36 C16 N1
C -3.116800 -2.117729 -0.221237
H -1.300106 -0.849942 1.089381
H 0.171449 5.772848 0.764159
H 0.297698 5.656850 -0.793647
H 1.357392 4.964958 0.132659
C -2.743220 -3.356858 -0.473846
C -2.107343 -0.963210 -0.691047
H -1.030528 4.113398 0.768377
H -0.855987 3.966012 -0.774139
H -1.173314 1.661069 -0.619604
H -1.165202 1.513683 0.933001
H 0.664416 2.730977 1.137936
H 0.972403 2.651826 -0.390153
H 2.974378 -2.344266 -3.375207
H 1.555927 -0.899070 0.890019
H 2.524763 -1.801123 -4.775488
H 1.859774 0.629371 0.816938
H 1.566689 -2.727741 -3.947651
H 0.604645 -1.745171 -1.821300
H 2.003724 -1.238875 -1.346597
C 0.838872 0.097146 2.442126
C -0.962151 -0.914082 0.181382
H 0.526275 -1.878910 2.716100
C 0.436651 5.190130 0.024590
H 0.869376 -0.668439 5.047228
C -0.373489 4.008317 0.069386
C 2.240331 -2.027660 -3.891163
C -0.590427 1.535518 0.146117
H -0.535670 -0.818554 4.367093
H 0.938076 -0.688910 -3.844362
H 2.353496 -0.250847 -3.366491
C 0.259539 2.728248 0.260791
C 1.163498 -0.020217 1.028993
H 1.857940 -1.387625 3.367552
H -0.061507 0.372811 -1.981222
C 1.245202 -1.012339 -1.897412
H 1.314635 0.823155 -1.412560
C 0.343699 -1.203394 4.435954
C 1.716407 -0.964575 -3.301840
C 0.918079 -1.170641 3.252725
C 0.659170 0.118981 -1.372274
H 0.294150 -2.094529 4.744602
N 0.067211 0.150368 0.012067
H -3.236414 -2.031754 0.741573
H -3.979988 -1.949873 -0.631620
H -1.809321 -1.150171 -1.604888
H -2.555795 -0.107556 -0.695714
H -2.586950 -3.420998 -1.433401
H -3.440234 -3.947764 -0.229850
H -1.941750 -3.543819 -0.010562
H -0.053922 0.469703 2.509200
H 1.448665 0.760380 2.827304
H -0.505427 -1.768371 0.114172