94
Fe1 H37 C48 N6 O2
N 1.534425 -0.136502 1.461444
N -2.335272 -0.928380 1.583155
N -2.447359 0.318571 1.430352
O -1.244986 -1.387310 1.029929
O -1.526781 1.003752 0.790853
H -3.368411 -4.975188 -4.938656
H 1.632134 4.682902 5.720593
H 3.535143 5.914427 5.212818
H -4.969942 2.395967 1.220984
H -4.542736 1.250571 0.188602
H -4.877108 -0.533726 1.899720
H -5.372656 0.584673 2.932212
H -4.174254 -0.397462 3.331554
C 2.093471 4.528640 4.906022
C 3.216786 5.257528 4.604834
C 3.884214 5.031277 3.415075
C -4.219264 1.866334 0.878886
C -4.593297 0.096177 2.594967
H 1.393087 -5.084457 0.451632
H 0.301125 -5.000898 -1.750761
H -1.738493 -5.777350 -6.397864
H 0.482675 -5.111452 -6.145859
H 4.660537 5.536485 3.201982
H 0.967278 -6.083303 4.454537
H 3.228925 -6.549946 4.813534
H 4.872182 -5.263143 3.764849
Fe 0.014421 -0.113619 0.031165
H -1.604580 -1.130206 -4.804290
H -1.876980 1.317418 -4.559828
H -0.287112 4.915580 -1.084950
H 1.083027 4.865445 0.978881
H 3.185962 1.020464 3.960808
H 3.168025 -1.447729 3.887647
H -2.792737 -3.504556 -3.227138
H 1.065582 -3.639535 -4.420749
H -3.376478 3.129997 -2.092499
H -4.557615 4.733037 -3.311159
H -3.473478 6.022410 -4.919695
H -1.206073 5.672750 -5.339361
H -0.023246 4.096706 -4.102750
H 0.848780 3.069578 4.230217
C -2.464556 -4.700087 -4.835729
C -1.497784 -5.178299 -5.701718
C -0.183843 -4.784931 -5.553892
H 3.884032 3.921876 1.713461
H -3.547663 2.465385 0.491661
H -2.581054 1.452397 3.771059
H -3.733807 2.523233 3.479869
H -2.356035 2.590080 2.668463
H 0.354608 -4.304148 3.084934
H 4.250786 -3.482702 2.393900
C 1.230670 -2.946642 0.477607
C 1.104125 -4.301577 -0.002474
C 0.508251 -4.259155 -1.194619
C 1.274866 -4.496975 3.218647
C 0.241928 -2.875938 -1.477334
C 1.635732 -5.552385 4.037132
C -0.436348 -2.420865 -2.606745
C 2.977291 -5.831342 4.245689
C -0.771102 -1.090355 -2.834220
C 3.952969 -5.066459 3.628479
C -1.358506 -0.608286 -4.049697
C -1.498168 0.727366 -3.919710
C -0.972045 1.091167 -2.642530
C -0.850435 2.403680 -2.199095
C -0.094440 2.785479 -1.099356
C 0.065623 4.141699 -0.661661
C 0.811851 4.115989 0.462354
C 1.118156 2.730201 0.731673
C 1.779195 2.285412 1.869699
C 1.989710 0.943333 2.187866
C 2.756293 0.479261 3.308108
C 2.753986 -0.864104 3.263014
C 2.014291 -1.256187 2.100456
C 1.827414 -2.575127 1.693780
C -0.807772 -3.410713 -3.667225
C -2.123850 -3.824650 -3.820784
C 0.159509 -3.904352 -4.529987
C -1.578741 3.456518 -2.979059
C -2.928292 3.650631 -2.749744
C -3.631501 4.604485 -3.474834
C -2.992670 5.364226 -4.430705
C -1.651121 5.163685 -4.670823
C -0.951068 4.220116 -3.941285
C 2.292336 3.318968 2.827812
C 1.629860 3.565787 4.017288
C 3.423142 4.069710 2.530698
C -3.598195 1.075741 2.013324
C -3.015432 1.991029 3.076896
C 2.238322 -3.710239 2.584587
C 3.578683 -4.009764 2.808169
N 0.713132 -2.078918 -0.454980
N -0.537561 -0.040088 -1.977796
N 0.580023 1.934466 -0.252615