117
Fe1 H50 C54 N6 O6
C -1.826768 -3.850221 -3.481436
C 2.206729 -1.210805 1.774017
C 1.822959 -0.844127 4.179619
C -0.106853 -0.822655 2.651971
C 2.197330 -2.732020 2.047911
H -5.142850 3.227313 -1.055494
C 2.255287 4.257974 1.912515
C 2.029725 -3.493454 0.756626
C -2.230900 -0.008367 1.630074
C 5.853323 -0.057918 -0.142495
C -2.799506 1.056979 2.384154
C 3.630592 -1.534538 -2.217238
C 1.179166 2.246203 -0.780211
C 2.604596 0.336838 -1.515559
H -4.494358 3.894600 4.196594
H -6.007506 -1.268614 -3.004210
C -0.233732 -2.368646 2.666068
C -0.485924 -4.104583 -3.510652
C 5.211096 0.328580 -1.456564
C 2.861487 -4.390327 0.319099
H -5.041034 -1.433784 0.824255
C 1.514377 -2.343871 4.397725
C 2.106479 4.400020 0.399234
C -0.329283 3.787240 -0.142430
C 1.088315 -2.976472 3.085805
C -0.628467 3.992050 4.551410
C 1.533174 -2.773313 -2.821508
H -3.977444 -2.370298 -2.988162
C -2.951447 -4.747094 -3.905816
C 4.604897 -2.606491 -2.612258
C 7.297550 0.353355 -0.181027
C 0.193897 -5.323538 -3.998657
H -3.621869 -4.426665 -4.498868
N 1.382799 -0.497270 2.787105
C 0.984932 -5.597720 -4.678162
N 1.583299 -0.508832 -1.914480
O 3.633725 2.355216 2.037450
N -2.381275 0.264163 -1.889019
O -2.030400 4.124186 4.332052
N -0.026967 1.717659 -1.144033
O 1.542103 2.158663 2.786326
N -0.761611 -1.982149 -2.619464
H -0.388807 5.678436 0.652071
O -0.446607 -0.875510 0.249889
H -7.094592 0.204702 -0.911156
H -7.876229 -0.895330 -1.852646
O 8.108948 -0.216481 0.432764
O 7.657823 1.496332 -0.791816
C -3.396307 -0.579855 -2.285066
C -4.821737 2.196652 3.146831
H -1.087424 2.044696 2.980057
C -4.679194 0.032925 -2.047151
Fe -0.420605 -0.271648 -1.505521
H -2.891924 3.230617 -0.594955
H 3.170069 2.081033 -0.695187
C -4.204573 1.119744 2.489153
H -1.529150 4.718798 1.238153
H -1.677959 5.333231 -0.233031
C -5.420104 2.322182 -1.134169
C -4.444233 1.289869 -1.533047
H -0.324584 0.767932 1.321220
H 1.916944 5.346444 0.181427
H 2.963303 4.155569 -0.034118
H 3.137174 -0.873858 1.805471
H 1.332674 -0.294111 4.839673
H 2.792565 -0.674002 4.284860
H -0.575209 -0.467540 3.461187
H 3.074518 -2.986382 2.453941
H 3.016561 4.811294 2.223278
H 1.844889 -1.034073 0.869514
H 1.434490 4.586662 2.357817
H 1.262186 -3.305160 0.228844
C -5.974612 -0.634361 -2.298183
C -4.074561 3.172807 3.743060
H 5.392799 0.396299 0.607169
H 5.782835 -1.035724 -0.005525
C -4.470862 -0.787969 1.226728
H -0.944881 -2.641177 3.298938
H -0.481225 -2.692380 1.763683
H 5.107713 1.312993 -1.476531
H 5.826694 0.080825 -2.190918
H -2.730584 -1.653460 0.541542
H 3.638424 -4.603396 0.821907
H 2.692315 -4.831331 -0.505263
C -3.079893 -0.931667 1.050287
C -3.197373 -1.876440 -2.763953
H 2.321077 -2.803043 4.743052
H 0.792264 -2.442973 5.066748
H 0.970834 -3.960885 3.217692
H 2.073584 -3.516578 -3.063225
H -0.456162 3.194279 5.093513
H -0.296389 4.784866 5.022208
H -0.169510 3.907814 3.688465
H 5.519678 -2.276151 -2.494644
H 4.463920 -2.849291 -3.549978
H 4.468620 -3.396004 -2.046061
H 1.381233 0.300501 2.776320
H -0.178908 -6.096533 -3.591289
C -7.083627 -0.422944 -1.624519
C -2.035100 2.071123 3.014826
N -5.026936 0.181578 1.913344
H 1.453287 -4.925478 -5.159754
H 1.215194 -6.512762 -4.794921
C 3.870252 -0.297415 -1.727517
C -3.014104 1.420353 -1.443519
C 2.200985 -1.658415 -2.354419
C -2.349947 2.512127 -0.900929
C 2.394698 1.605344 -0.969405
C 2.493381 2.811085 2.290784
C -0.973076 2.662432 -0.755297
C 0.182932 -2.926921 -2.975973
C 1.003729 3.534529 -0.170662
C -1.043564 4.984722 0.428604
C -0.719318 -0.145458 1.416529
C -2.669494 3.086919 3.671007
C -1.986541 -2.518951 -2.947066
H -5.769413 2.247855 3.176110