85
Zn1 H32 C47 N4 Cl1
Zn -0.154943 -0.076674 -0.453194
H 0.173583 -4.264284 -3.355493
H -2.163099 -4.282204 -2.514607
H -4.559589 -1.916837 1.552810
H -4.031054 -0.100458 3.140036
H 3.570117 -3.338989 -6.248514
H 4.732894 -5.156998 -5.415018
H 0.895451 0.090140 1.783626
H 2.184798 -2.133500 -4.810199
H 4.620233 -5.764630 -3.178434
H 3.316976 -4.419043 -1.681239
H -4.581843 -2.447904 -2.386748
H -6.287064 -4.006896 -2.732245
H -6.630612 -5.728791 -1.224491
H -5.241121 -5.924276 0.634438
H -3.498346 -4.419043 0.946101
H -4.243858 2.224182 2.822274
H -5.195222 3.397091 4.591176
H 3.696687 3.011009 2.547951
H -3.932301 3.949336 6.450564
H -1.681854 3.398720 6.523722
H 5.497879 4.459225 2.826872
H -0.680419 2.274682 4.749834
H 6.929097 4.920243 1.041866
H 6.488187 4.012868 -1.051426
H 4.653614 2.631442 -1.372956
H -0.677637 4.775259 2.862088
H -1.843196 4.102465 2.006167
H -0.697109 6.306556 1.285944
H -0.676246 4.449451 -0.729257
C 2.990119 0.560932 -0.350959
H -0.548285 6.085007 -0.858679
C 4.215486 0.055930 -0.915934
C 3.912274 -1.043672 -1.608524
C 2.485229 -1.250560 -1.493354
C 1.812042 -2.283371 -2.187645
C 0.448978 -2.538805 -2.101548
C -0.210301 -3.655023 -2.735981
C -1.482958 -3.663168 -2.276641
C -1.613701 -2.557702 -1.355525
C -2.699979 -2.343646 -0.505572
C -2.723624 -1.406948 0.554293
C -3.795994 -1.353190 1.527461
C -3.513645 -0.361104 2.386853
C -2.270197 0.233495 1.947844
C -0.410588 1.818551 2.057807
C -1.690199 1.357533 2.512560
C 0.685428 1.087112 1.629255
C 1.643745 1.978197 1.124132
C 1.108256 3.256994 1.284101
C 2.867721 1.694744 0.428360
C 3.501964 -3.575200 -5.330463
C 2.641008 -3.151650 -3.085364
C 4.194623 -4.643850 -4.824481
C 2.704988 -2.851906 -4.468663
C 4.143160 -5.007126 -3.496281
C 3.347576 -4.208897 -2.606638
C -3.871102 -3.265683 -0.671419
C -4.704240 -3.158166 -1.767403
C -5.725148 -4.085090 -1.970382
C -5.928217 -5.106498 -1.085886
C -5.104814 -5.222160 0.008428
C -2.364777 2.108520 3.602395
C -4.075562 -4.316413 0.199489
C -3.711151 2.460393 3.572790
C -4.277240 3.152735 4.628064
C 3.995727 2.636329 0.556263
C -3.531727 3.489946 5.723269
C 4.259994 3.211380 1.809204
C -2.200653 3.159251 5.764957
C -1.605355 2.483200 4.713110
C 5.335146 4.066626 1.978272
C 6.176630 4.353338 0.916166
C 5.916535 3.812496 -0.319767
C 4.833038 2.978428 -0.507011
C -0.890442 4.372886 1.983628
C -0.736054 5.417101 0.954566
C -0.645647 5.307955 -0.322605
N 1.933744 -0.289426 -0.698025
N -0.439796 -1.859169 -1.320573
N -1.791733 -0.459172 0.836197
N -0.083730 3.172284 1.828330
Cl -0.704620 1.806659 -1.560192
H 5.079224 0.435496 -0.813457
H 4.522871 -1.589400 -2.091166