101
Co1 H40 C55 N4 Cl1
Co -1.075103 -0.114230 -0.242452
H 0.801411 -4.832686 1.216942
H -1.243398 -4.489217 2.546748
H -5.092595 -0.845550 2.794749
H -5.206673 1.554595 2.228416
H -4.200828 -4.296792 1.654573
H -5.234885 -5.693428 3.211876
H -5.093822 -5.227882 5.492475
H -3.876995 -3.390530 6.226437
H -2.801231 -2.010447 4.677676
H -3.735931 3.271939 3.437288
H 5.477364 3.139518 -3.056937
H 3.887638 1.819438 -1.982497
H 3.858198 -2.604276 -1.425568
H 5.281101 -4.280239 -2.226209
H 4.563517 -6.463129 -2.385793
H 2.393590 -7.023852 -1.780374
H 0.901996 -5.372719 -1.024661
H 1.258948 0.960766 1.090387
H 1.330093 -0.611743 1.387312
H 3.319703 2.247740 0.843163
H 5.598801 2.440165 1.257962
H 3.531912 -1.716637 1.483691
H 0.835757 1.380791 -4.152114
H 2.212047 0.720751 -4.617855
H -0.257179 -0.719335 -4.794237
H 1.847735 -0.516564 -6.590485
H 0.475125 -1.404204 -6.773654
C 0.381900 -2.916916 0.327527
C 0.224890 -4.078917 1.179226
C -0.885219 -3.891664 1.901202
C -1.439660 -2.609035 1.519701
H 5.804876 -1.530418 1.881242
C -2.667650 -2.122385 2.043725
C -3.181244 -0.853412 1.805257
H 7.768727 -0.270343 2.215735
C -4.434257 -0.345451 2.326280
H 7.884032 0.998009 1.248238
C -4.493995 0.960766 2.025033
H 7.495187 1.198711 2.785388
C -3.256192 1.298441 1.324498
C -2.811412 2.583139 1.022995
C -1.559013 2.863915 0.391716
H -1.386915 4.991353 0.655569
H 0.737626 4.832033 -0.594440
C 0.321059 2.724458 -0.757528
C 1.323960 2.204910 -1.559219
C 1.452757 0.771237 -1.656202
C 1.421232 -0.170406 -0.624158
C 1.497161 -1.440620 -1.250887
C 1.600077 -1.221503 -2.624525
C 1.357079 -2.726559 -0.636060
H -5.093822 5.055495 4.088577
C -3.397378 -3.010232 3.008620
H -5.788100 6.613520 2.511628
H -5.099955 6.437647 0.307779
C -4.126003 -4.108505 2.583512
C -4.745456 -4.934899 3.509949
H -3.796036 4.618917 -0.386548
H 1.013620 4.529946 -2.897943
C -4.657138 -4.663435 4.865294
C -3.940780 -3.580059 5.297536
H 2.610705 5.847956 -3.976747
C -3.305380 -2.755940 4.372191
H 4.848097 5.173433 -4.027129
C 2.288099 3.051788 -2.301958
C 4.572103 3.426294 -3.017294
C 3.626363 2.643557 -2.376581
C 2.234127 -3.826074 -1.120142
C 3.547859 -3.499158 -1.494837
C 4.394240 -4.501632 -1.968733
C 3.971049 -5.790675 -2.069060
C 2.683077 -6.121108 -1.712190
C 1.796216 -5.141808 -1.249546
C 1.706672 0.116784 0.830890
C 3.188453 0.236584 1.106132
C 3.822626 1.470797 1.056845
C 5.184197 1.586459 1.315800
C 5.303181 -0.748302 1.683965
C 3.946517 -0.862723 1.431587
C 1.336226 0.527085 -4.200412
C 0.586749 -0.402764 -5.093651
C 1.007487 -0.810375 -6.256085
N -0.645411 -2.004654 0.592082
N -2.525237 0.144924 1.125533
N -0.725265 1.966551 -0.208741
C -1.004081 4.199926 0.297102
N 1.569288 0.066505 -2.858550
Cl -1.720929 -0.558153 -2.383988
C 0.148839 4.116335 -0.389271
C 5.948393 0.478668 1.656591
C 7.399509 0.613159 2.006798
C -3.646632 3.739140 1.455900
C -4.027871 3.901563 2.788327
C -4.827641 4.967145 3.180491
C -5.231205 5.890994 2.248629
C -4.836227 5.776987 0.938143
C -4.053631 4.699405 0.524870
C 1.921334 4.248550 -2.918156
C 2.870753 5.033356 -3.562538
C 4.196751 4.628642 -3.600718