101
Co1 H40 C55 N4 Cl1
Co 0.674638 -0.183733 -0.714309
H 0.144601 -4.945657 1.500232
C 5.348399 5.147529 0.221475
H 2.567417 -4.515850 1.420535
C 5.200488 6.021677 -0.791492
H 4.474376 -2.383429 2.627660
H 5.724901 -0.670432 -0.350488
H 5.405852 1.717382 -0.822426
H 5.055021 -3.566954 -1.174382
H -6.420961 2.900908 0.785845
H -4.466328 1.611488 0.777094
H 6.902082 -4.781624 -0.475916
H 7.477837 -4.931122 1.759652
H -4.022593 -3.132995 0.765538
H 6.326327 -3.631321 3.307335
H -5.466259 -4.983031 0.642618
H -4.617907 -7.063544 0.037466
H 4.651626 3.417921 0.998075
H -2.380897 -7.302325 -0.458046
H -0.953122 -5.462670 -0.438245
H -0.365143 0.454956 1.782751
H -0.866331 -1.040024 2.239783
H -0.560729 2.278000 2.581924
H -3.818451 2.875991 4.930439
H -4.610572 0.807937 4.397011
H -2.990879 -1.581954 2.266373
H -3.699877 -1.625557 3.699178
H -4.480997 -1.025489 2.438630
H -4.610572 0.511017 -2.397384
H -3.268366 1.302110 -2.759503
H -2.566703 -0.732722 -3.993451
H -5.323237 -0.641363 -4.372527
H -4.226735 -1.438685 -5.304819
C -3.011660 -0.119781 -1.377180
C -0.088879 -3.031253 0.552543
C 0.567555 -4.169098 1.149424
C 1.881645 -3.932393 1.117873
C 2.065007 -2.620134 0.536348
C 3.350982 -2.074051 0.269346
C 3.582017 -0.815777 -0.210223
C 3.281304 1.345714 -0.617604
C 2.677434 2.595683 -0.605267
C 1.283887 2.819930 -0.421747
H 1.220322 4.931588 -0.110491
H -1.244056 4.659585 0.079241
C -0.892002 2.576995 -0.317103
C -2.157196 2.014302 -0.400011
C -2.274547 0.575384 -0.416098
C -1.636449 -0.367283 0.396859
C -1.983614 -1.640092 -0.129058
C -1.443309 -2.925359 0.242233
C 4.891218 -0.215709 -0.397973
C 4.537942 -2.900442 0.665873
C 4.721303 1.082016 -0.652342
H 4.151660 6.455636 -2.494445
H 2.770337 4.557843 -2.396790
H -2.747620 4.294145 -1.738385
H -4.686361 5.591870 -1.699970
H -6.517531 4.892137 -0.413627
C -3.378383 2.838617 -0.457172
H 6.007278 5.297027 0.888894
H 5.760351 6.787854 -0.828063
C 5.287279 -3.587717 -0.254401
C 6.385002 -4.314443 0.169649
C -5.666734 3.189522 0.285336
C 6.752948 -4.380887 1.486337
H -1.777027 3.710688 3.847136
C -4.501778 2.421268 0.280338
C 6.056174 -3.639626 2.396881
C -2.334445 -4.104731 0.201665
C 4.952338 -2.898366 1.989839
C -3.679096 -3.980149 0.506208
C -4.543340 -5.082697 0.440063
C -4.042152 -6.307749 0.078088
C -2.720727 -6.446865 -0.223612
C -1.865040 -5.354700 -0.191554
C -1.025245 -0.122273 1.757342
C -1.868707 0.652210 2.672081
C -1.388300 1.993538 2.951667
C -2.075294 2.819930 3.703647
C -3.336821 2.325756 4.326053
C -3.786668 1.102780 4.028400
C -3.061779 0.245243 3.180477
C -3.604529 -1.114773 2.868269
C -3.641201 0.405123 -2.568898
C -3.452950 -0.466948 -3.776282
C -4.423543 -0.888449 -4.557118
N 0.864601 -2.062631 0.235352
N 2.622426 0.155544 -0.422384
N 0.301070 1.862935 -0.450241
N -2.842968 -1.434117 -1.209930
Cl 0.042408 -0.670847 -2.840210
C 0.733803 4.119731 -0.187277
C -0.609625 3.972309 -0.094828
C 3.556347 3.797895 -0.686231
C 4.540386 4.034600 0.284892
C 4.243341 5.830652 -1.786032
C 3.424326 4.705264 -1.723542
C -3.484733 4.016536 -1.208157
C -4.638687 4.788319 -1.196831
C -5.726632 4.366818 -0.437200