98
Co1 H38 C54 N4 Cl1
H -1.213786 -4.327376 4.537806
H 0.139657 1.484669 -5.674652
H -4.308500 1.020337 -2.973609
H -4.826133 -1.525591 0.111613
H -0.822791 -2.188923 -0.316220
H 0.274210 -1.917273 0.820112
H -2.602054 -3.746172 0.130068
H -3.635736 -5.358698 1.475277
H -2.932896 -5.654038 3.693590
C 2.316246 -0.028358 3.577630
H -0.183270 -2.749595 3.176601
H -6.605396 1.059821 -3.310867
H -8.009494 -0.173659 -1.928161
H -7.123029 -1.487687 -0.236552
H -4.859375 1.644184 0.771776
H -3.809864 2.179587 -0.306200
C 1.157509 0.075880 2.706617
C 3.402167 0.101149 2.806315
C 2.954185 0.252768 1.429288
C 3.843816 0.439132 0.342579
C 3.476566 0.510204 -0.994722
C 4.383611 0.682354 -2.101630
C 3.674438 0.611283 -3.241117
C -3.806698 3.250393 1.413289
C 2.292502 0.353847 -2.855443
C 1.239824 0.067983 -3.715120
C -4.756482 3.738416 2.172455
C -0.083542 -0.222619 -3.305331
C -1.133054 -0.664840 -4.199917
C -2.256966 -0.784872 -3.496919
C -1.945120 -0.429516 -2.131376
C -2.863245 -0.298429 -1.112267
Cl -0.318456 2.694459 -0.075633
C -2.420012 -0.074160 0.238040
C -1.326177 -0.628515 0.925686
C -1.228033 0.102729 2.126932
C -2.280711 1.001385 2.168998
C -0.167440 0.093253 3.112953
C 5.327063 0.535473 0.656008
C 5.881104 1.723152 1.104451
C -0.558435 0.169062 4.550900
C 7.245628 1.821072 1.333473
C -1.669683 -0.565340 4.983362
C 8.052945 0.709203 1.141689
C -2.059094 -0.552706 6.319316
C 7.505236 -0.470579 0.732509
C 6.140712 -0.559023 0.492579
C -1.364169 0.224340 7.227747
C 1.504181 0.063245 -5.203832
C -0.286163 0.977694 6.811866
C 2.471378 -0.776975 -5.759580
C 0.106414 0.966639 5.477362
C 2.770560 -0.709062 -7.106888
C 2.093047 0.186435 -7.931890
C 1.097356 0.991908 -7.400110
C 0.817170 0.925575 -6.038642
C -4.322747 -0.282635 -1.402997
C -4.876788 0.502307 -2.415029
C -6.238146 0.532315 -2.611694
C -5.183885 -0.999664 -0.594115
H 5.322314 2.476507 1.254691
H 7.623959 2.642340 1.622304
C -0.697736 -1.966233 0.640108
C -1.321428 -3.065467 1.503269
C -2.315536 -3.853568 1.029495
C -2.936062 -4.824874 1.830476
C -2.518157 -5.000183 3.143724
C -1.501887 -4.218400 3.638562
C -0.898774 -3.270784 2.830510
C -7.069207 -0.203667 -1.795391
C -6.548409 -0.974395 -0.792231
C -3.938085 1.985326 0.655861
N 1.595993 0.210125 1.377153
N 2.197048 0.366482 -1.470126
N -0.579013 -0.143651 -2.031982
N -2.981968 0.914520 1.054046
H 2.305166 -0.162604 4.517018
H -2.991466 3.735257 1.344214
H -5.581212 3.274084 2.257176
H -4.621929 4.554945 2.638631
Co 0.515772 0.590909 -0.396344
H 4.304462 0.096411 3.105295
H 5.320731 0.822917 -2.037578
H 4.008446 0.709203 -4.125229
H -1.034910 -0.840149 -5.129402
H -3.105440 -1.051783 -3.831228
H -2.165153 -1.078632 4.355415
H -2.796760 -1.077053 6.606651
H -1.631691 0.240133 8.138693
H 0.191895 1.505200 7.440013
H 8.988483 0.770798 1.295009
H 0.833000 1.509939 5.194948
H 8.059277 -1.233410 0.611908
H 5.765547 -1.386608 0.212471
H 2.928857 -1.399243 -5.205403
H 3.441741 -1.274473 -7.473779
H 2.311498 0.244871 -8.853509
H 0.611383 1.584168 -7.961890