271
Zn2 H106 Ir1 C148 N14
C 1.003672 1.343311 -2.354170
H -4.787507 12.040049 -2.907598
C 0.163146 0.209111 -2.177483
C -1.951873 -7.996377 0.822217
H -5.872425 10.902523 -2.601316
C -0.582592 -7.996377 0.581836
C -0.677380 -0.203325 -3.174488
H -5.520683 11.285024 -4.112759
C 0.251082 -8.824576 1.325408
C -0.672812 0.491830 -4.348337
H 5.607151 2.760230 9.125314
C -0.284525 -9.656101 2.301789
C 0.167714 1.559508 -4.521237
H 6.496784 0.435286 9.215745
C -1.556735 -1.370786 -2.951027
C -1.653806 -9.656101 2.538384
H 1.383965 0.598265 0.173169
C -2.487480 -8.827902 1.798598
C 3.861004 1.928705 8.273170
H 4.255001 3.295732 1.084903
H 4.058573 4.157192 -1.024743
H 2.068034 -0.492696 1.887364
C 4.668412 -0.156760 8.279360
H 1.920714 -1.211133 4.088390
C 3.025046 3.016340 8.124094
H 3.192923 2.204771 5.373373
C 1.664901 2.943165 7.641014
H 3.494416 3.039622 3.227601
C -0.200016 2.204771 6.774041
H 5.224575 6.804768 6.889584
H 0.187129 -0.269847 -1.352942
C -0.327922 3.634994 6.914758
H -1.256384 0.229068 -5.051327
C 0.801535 4.090670 7.462596
C -1.171874 1.373246 6.228332
C -1.085081 0.002893 6.047388
H -5.686276 -5.787847 -6.802743
C -0.284525 -2.075919 6.072745
C -1.595563 -2.132463 5.497103
H -1.080513 4.157192 6.664364
C -2.076353 -0.878523 5.483419
H 1.000246 4.992043 7.686686
C 0.557143 -3.176859 6.255699
H -2.040951 -2.910771 5.183094
C 1.861329 -3.110337 6.736925
H -2.929442 -0.615762 5.156988
C 3.776495 -2.378595 7.621093
H 4.614737 -4.354298 7.743587
C 3.867856 -3.818796 7.504355
H 2.460889 -5.172519 6.822229
C -5.821034 -5.402019 -5.946217
C 2.692719 -4.264493 6.988383
H 4.515381 4.543020 6.622547
C 4.757489 -1.550396 8.132411
C 3.529819 4.403323 8.390618
H 7.287061 -1.324221 7.272685
H 4.495967 8.002164 8.788866
C 4.273273 5.025304 7.407059
H 3.505836 6.901224 10.492732
H 9.220500 -2.508312 8.125933
H 2.709849 4.679390 10.232479
C 4.695820 6.382353 7.555268
H 9.054907 -4.018362 9.755889
H -3.538138 1.685900 7.381521
C 4.307534 7.077508 8.704508
H 7.074646 -4.370928 10.808666
H -5.425895 2.803469 6.712213
H 5.138923 -3.269989 10.103154
C 3.668003 6.442223 9.676906
C 6.027414 -2.192333 8.599676
H -5.485280 3.841212 4.616765
C 3.215763 5.091826 9.544867
H -7.232570 -3.862035 -6.234430
C -2.420101 2.025162 5.745173
C 7.212830 -1.939549 7.990821
H -3.678606 3.608385 3.191373
C -3.547274 2.104988 6.529964
H -1.765724 2.487490 3.890101
C 8.368554 -2.671291 8.511250
C -4.673305 2.756904 6.133451
H -1.435681 -4.587125 7.210471
C 8.281760 -3.539403 9.479703
C 7.119185 -3.758926 10.083983
C -4.716702 3.355602 4.893109
H -2.300189 -6.735786 6.505824
C 5.965745 -3.103684 9.669486
C -3.644346 3.235862 4.060993
C -2.503469 2.570642 4.483495
H 0.442941 -6.955308 3.688881
C -6.682117 -4.354298 -5.632521
C 0.027246 -4.523929 5.857528
H 1.323438 -4.863191 4.358900
H -11.235347 -3.163554 -5.759226
C 4.983609 2.085032 -6.550322
C -1.032548 -5.049453 6.484761
H -1.878784 -7.161526 -5.790838
H -10.913297 -1.084742 -6.584360
C 6.052539 1.542877 -5.833805
C -1.562445 -6.339980 6.048730
H -9.102055 0.182502 -5.946485
C -1.025696 -6.951982 5.026876
C 0.036382 -6.473024 4.399564
C 0.571989 -5.222410 4.816468
C 2.967945 1.645986 4.639068
H -2.508037 -6.033978 2.654967
H -3.808796 -3.965144 3.135292
C 7.307618 1.223572 -6.585151
C -5.168941 -5.791173 -4.711752
C 8.264630 2.254663 -6.765861
C 3.862146 2.600577 -5.898242
C 9.316429 2.001879 -7.631342
C 9.466034 0.791179 -8.291504
C -6.561062 -4.164710 -4.186625
C 8.558129 -0.249891 -8.025410
C 7.465216 -0.056977 -7.162295
C 8.132156 3.545190 -6.057071
C -6.266422 -2.774400 -0.107813
C 2.742967 3.305710 -6.510799
C 10.564656 0.591613 -9.325191
H -4.926833 -0.472739 1.242994
C 1.901299 3.984235 -5.622286
C 6.463666 -1.171220 -6.927042
C -10.469052 -2.667965 -5.497948
H -4.999922 0.930875 3.142354
C 0.849500 4.722629 -6.169020
H 5.021296 2.104988 -7.498148
C 0.650788 4.755890 -7.566801
C -10.278335 -1.450613 -5.977797
H -7.480388 -1.171220 0.490670
C -5.532103 -3.080402 1.010229
H -5.600624 0.056111 5.184877
C -9.199127 -0.705566 -5.625100
H -8.513915 -1.251047 -1.809660
C -4.631050 -4.174689 1.141912
H -6.483405 -2.059289 5.378168
C -3.445634 -6.007370 0.718576
H -6.357783 -3.536077 3.495924
C 2.509995 3.299058 -7.877107
C 1.463906 4.000865 -8.424039
C -3.112165 -5.598259 2.066269
H -0.216004 -7.430940 -0.085820
C -3.828211 -4.470711 2.329523
C -2.888329 -7.121613 0.063264
H -9.697047 -4.088210 -4.229764
C -3.077904 -7.417636 -1.342404
H 9.961670 2.683730 -7.774781
C -3.677464 -7.271288 -3.396480
H 8.688319 -1.098046 -8.431233
C -7.307943 -3.203467 -3.502049
H 8.801379 4.177149 -6.398216
C -7.122936 -2.884162 -2.153015
C 5.932627 1.483008 -4.440165
C -4.256468 -6.825590 -4.622111
H -7.455263 -0.755458 -4.545711
C 4.796318 1.955314 -3.817861
H 7.234529 3.907734 -6.204017
C -7.246274 -1.776570 -0.202700
H 11.430307 0.827766 -8.931044
C -7.822994 -1.806505 -1.470056
H 10.392211 1.167028 -10.102958
H 10.578361 -0.346347 -9.613408
H -2.997963 -0.821980 -4.169596
H 6.732040 -1.966158 -7.436076
H -4.482588 -2.425160 -3.504974
H 0.264786 5.204913 -5.596056
H 5.575175 -0.881850 -7.221961
H -1.697203 -4.337667 -1.541533
H -0.041275 5.298044 -7.929082
H 6.436257 -1.390743 -5.971998
C -5.623465 -2.149094 2.187075
H -0.209152 -2.584813 -1.907171
H 1.296029 3.977583 -9.360980
C -5.220332 -0.815328 2.078500
Ir 2.290956 3.655283 -3.678708
H 3.084431 2.800143 -8.445931
C -5.254593 0.019524 3.211727
C -5.655441 -0.496022 4.414406
C -6.128237 -1.759940 4.548104
C -6.080272 -2.631378 3.414403
C -8.375731 -2.501660 -4.282969
H -1.407130 -7.763550 4.718231
C -9.542874 -3.230076 -4.609912
H 6.638395 1.117137 -3.919341
C -8.226126 -1.261025 -4.776543
H -1.331757 -8.382205 -7.763358
H -2.927158 -9.409970 -8.957672
H -5.173509 -9.286904 -8.353823
C -2.439515 7.513227 -5.449654
H -5.752513 -8.136074 -6.368840
C 4.816874 5.421110 -3.750421
C 5.444985 6.668397 -3.590381
C -2.737582 -1.457265 -3.512235
Zn 1.902099 -0.040014 6.911949
H 8.273766 3.408819 -5.096506
Zn -4.782025 -4.890798 -1.822312
C -3.595239 -2.461747 -3.153224
C -1.998696 -3.552708 -1.985452
H -2.689618 -9.084012 -3.972009
C -1.104495 -2.528269 -2.220784
H -1.989560 -9.250317 -1.531436
C 1.272047 6.329135 -3.094156
N 3.791341 2.544033 -4.502512
C 0.343585 7.343596 -3.039374
N 0.896322 4.988717 -3.111469
H 4.717518 1.862183 -2.876187
C -1.026838 7.077508 -2.908750
N 2.634476 2.929861 -1.713850
C -1.409414 5.743742 -2.793313
C -0.421568 4.745912 -2.888007
N 2.511137 0.451917 4.912299
N 1.013950 2.021836 -3.554719
C 2.718985 6.475484 -3.257711
N -3.299456 -3.466229 -2.368358
C 3.403054 5.264783 -3.584224
H -2.659925 6.578593 -5.248951
N 3.552659 0.608243 7.946856
H -1.488214 7.583075 -5.675599
H 5.343345 4.662759 -3.973053
N 1.061915 1.795661 7.245368
H -2.979690 7.822554 -6.203363
C 4.734649 7.799271 -3.213742
H 6.379156 6.738246 -3.743799
N 0.053512 -0.782067 6.428322
C -3.870465 -7.583941 -5.869710
C 3.376788 7.679532 -3.075980
H 5.174326 8.627470 -3.058552
N 2.540830 -1.976136 7.148859
N -5.631459 -5.022844 -3.658387
C -2.554859 -7.610550 -6.282398
C -2.047803 8.178447 -3.036292
N -6.181912 -3.476208 -1.329856
C -2.235094 -8.332314 -7.474705
H 1.187537 -8.824576 1.160553
C -2.327598 8.999994 -1.902157
N -4.356966 -5.099344 0.144274
C -3.173834 -8.927685 -8.176788
H 0.285342 -10.221538 2.808376
C -3.340569 10.001150 -2.079195
N -3.793950 -6.649307 -2.218766
C -4.505428 -8.874468 -7.820339
H -2.020394 -10.221538 3.206040
C -4.068035 10.137520 -3.220189
C -4.843466 -8.185965 -6.638760
H -3.423936 -8.827902 1.959667
C -3.699163 9.362538 -4.255176
C -2.898607 -8.472010 -3.271935
C -2.737582 8.384665 -4.216449
C -2.510321 -8.571793 -1.941280
C -1.436823 8.810406 -0.645647
H 0.162004 2.005205 -5.361554
H 0.638226 8.244969 -3.087410
C -5.157521 11.181915 -3.209065
C 3.149526 2.164858 3.364453
H -2.320745 5.514241 -2.652042
C 1.885311 1.895444 -1.362372
H -0.695652 3.841212 -2.791461
C 1.941270 1.330007 -0.058100
C 2.833187 1.875487 0.880338
C 3.623464 2.919883 0.482007
C 3.505836 3.422124 -0.778488
H 2.869731 8.451187 -2.846446
C 5.157196 1.975270 8.826608
C 2.794358 1.323355 2.267392
H -3.514155 10.596522 -1.361413
C 5.655116 0.701374 8.866203
C 2.328414 0.096024 2.586372
H -4.141124 9.505561 -5.084212
C 2.218781 -0.326391 3.911507
H -0.564320 8.454513 -0.914305
H -1.871932 8.181773 -0.028630
H -1.314627 9.675192 -0.195536