20
H14 C6
H -0.498509 1.229623 -0.108282
H -0.521128 0.101287 -1.222008
C 1.357212 1.580076 -2.453860
C 1.240274 1.033126 -1.059649
C 0.008084 0.465920 -0.467639
H 2.074061 1.124285 -2.923918
H 1.551448 2.540276 -2.392844
H 0.507271 1.448403 -2.917212
H 1.929209 0.313989 -1.002449
H 1.537705 1.748212 -0.452782
C -1.357212 -1.580076 2.453860
H 0.498509 -1.229623 0.108282
C -1.240274 -1.033126 1.059649
H 0.521128 -0.101287 1.222008
C -0.008084 -0.465920 0.467639
H -2.074061 -1.124285 2.923918
H -1.551448 -2.540276 2.392844
H -0.507271 -1.448403 2.917212
H -1.929209 -0.313989 1.002449
H -1.537705 -1.748212 0.452782