137
Fe1 H60 C66 N6 Cl2 O2
H 1.070167 -4.984435 -0.523958
H -2.432665 4.296664 1.003923
H -0.242913 -1.282908 3.661631
H -0.863061 0.781673 -5.655255
H -4.229393 0.053296 -3.528438
H -3.075697 0.606558 -1.581403
H -0.386430 7.990577 5.356223
H -1.012970 7.089623 6.520378
Fe 0.000000 0.000000 -0.000000
C -1.475948 1.697855 2.103028
C -2.716496 1.763840 2.827863
C -3.458337 0.697922 2.463138
C -2.693375 -0.055834 1.490269
C -3.125131 -1.229612 0.859299
C -2.379396 -1.944031 -0.109792
C -2.776002 -3.199022 -0.689928
C -1.784010 -3.589859 -1.528806
C -0.759921 -2.577237 -1.485849
H 0.386430 -7.990577 -5.356223
C 0.449884 -2.644491 -2.185958
C -4.442034 -1.815867 1.283568
H 1.012970 -7.089623 -6.520378
C -5.552460 -1.799371 0.422031
C -6.748553 -2.388164 0.832450
C -6.873000 -2.982032 2.085243
C -5.776502 -2.988377 2.925837
C -4.549539 -2.427501 2.552877
C -5.495351 -1.142055 -0.947602
C -8.166676 -3.648231 2.499091
C -3.374514 -2.523941 3.496939
C 0.649752 -3.849994 -3.068581
C 0.151283 -3.841111 -4.373391
C 0.321739 -4.979359 -5.177206
H 2.967658 -2.435115 -3.450343
C 0.952032 -6.109993 -4.697773
H 4.324971 -0.482201 -2.784634
H 3.584309 3.667265 0.518571
C -1.429536 6.106186 3.403749
H 1.767215 4.385491 2.048900
C -0.573352 -2.641953 -4.915850
C -1.290096 4.990780 2.572806
H 7.494108 2.384357 -0.244744
H 5.857456 3.385558 -3.784078
H 5.400431 0.171308 0.841067
C -0.674735 1.035463 -3.646740
H 6.320027 1.337473 1.439204
C -1.323783 0.732184 -4.825807
H 4.727435 1.491016 1.445742
C -2.649475 0.356575 -4.785472
H 8.259164 3.605086 -3.473921
C -3.314471 0.307086 -3.568167
H 8.158147 4.584716 -2.211435
C -2.629930 0.630668 -2.419151
H 8.921887 3.183795 -2.078914
H 3.273199 1.678821 -3.981834
H 2.558812 2.706670 -2.985316
H 3.528340 3.251049 -4.136223
H 0.003486 4.970476 6.070895
N -1.484316 0.575723 1.299181
H 1.259136 2.358978 4.276056
N -1.163624 -1.563727 -0.626981
H 0.997975 2.874171 5.769095
N -1.333873 0.980644 -2.474667
H -0.063149 1.911038 5.056725
Cl -3.466688 -0.032739 -6.244053
H 2.293870 -5.891734 -1.013802
H -1.070167 4.984435 0.523958
H 2.432665 -4.296664 -1.003923
H 0.242913 1.282908 -3.661631
O -0.702485 1.350670 -1.354257
H 0.863061 -0.781673 5.655255
H 4.229393 -0.053296 3.528438
H 3.075697 -0.606558 1.581403
C -1.092123 7.348488 5.579617
C -1.818276 5.045344 1.153485
C 1.092123 -7.348488 -5.579617
C 1.475948 -1.697855 -2.103028
C 2.716496 -1.763840 -2.827863
C 3.458337 -0.697922 -2.463138
C 2.693375 0.055834 -1.490269
C 3.125131 1.229612 -0.859299
H 1.863509 -6.882784 -3.067578
C 2.379396 1.944031 0.109792
C 2.776002 3.199022 0.689928
C 1.784010 3.589859 1.528806
C 0.759921 2.577237 1.485849
C -0.449884 2.644491 2.185958
H 1.968749 -7.760897 -5.426888
C 4.442034 1.815867 -1.283568
C 5.552460 1.799371 -0.422031
C 6.748553 2.388164 -0.832450
C 6.873000 2.982032 -2.085243
C 5.776502 2.988377 -2.925837
C 4.549539 2.427501 -2.552877
C 5.495351 1.142055 0.947602
C 8.166676 3.648231 -2.499091
C 3.374514 2.523941 -3.496939
C -0.649752 3.849994 3.068581
C -0.151283 3.841111 4.373391
C -0.321739 4.979359 5.177206
C -0.952032 6.109993 4.697773
C 1.429536 -6.106186 -3.403749
C 1.290096 -4.990780 -2.572806
C 0.573352 2.641953 4.915850
C 1.818276 -5.045344 -1.153485
C 0.674735 -1.035463 3.646740
C 1.323783 -0.732184 4.825807
C 2.649475 -0.356575 4.785472
C 3.314471 -0.307086 3.568167
C 2.629930 -0.630668 2.419151
N 1.484316 -0.575723 -1.299181
N 1.163624 1.563727 0.626981
N 1.333873 -0.980644 2.474667
Cl 3.466688 0.032739 6.244053
O 0.702485 -1.350670 1.354257
H -1.863509 6.882784 3.067578
H -1.968749 7.760897 5.426888
H -2.967658 2.435115 3.450343
H -4.324971 0.482201 2.784634
H -3.584309 -3.667265 -0.518571
H -1.767215 -4.385491 -2.048900
H -7.494108 -2.384357 0.244744
H -5.857456 -3.385558 3.784078
H -5.400431 -0.171308 -0.841067
H -6.320027 -1.337473 -1.439204
H -4.727435 -1.491016 -1.445742
H -8.259164 -3.605086 3.473921
H -8.158147 -4.584716 2.211435
H -8.921887 -3.183795 2.078914
H -3.273199 -1.678821 3.981834
H -2.558812 -2.706670 2.985316
H -3.528340 -3.251049 4.136223
H -0.003486 -4.970476 -6.070895
H -1.259136 -2.358978 -4.276056
H -0.997975 -2.874171 -5.769095
H 0.063149 -1.911038 -5.056725
H -2.293870 5.891734 1.013802