153
Fe1 H72 C70 N8 O2
H -2.171011 -0.595229 4.029983
C 3.414210 -0.946116 0.670357
H -2.995065 6.965175 1.737646
C 4.451194 -1.085334 1.560962
H -1.750079 -4.683700 0.304420
C 4.828493 0.011365 2.364891
H -2.099449 -4.589941 -1.254342
C 4.127170 1.230235 2.186203
H -2.380859 -5.945188 -0.451493
C 3.121386 1.297003 1.280759
C 6.637921 -1.309788 3.304553
C 6.156925 0.964584 4.185476
H -3.570478 4.197857 0.689144
H -3.752613 4.723477 2.191315
H -2.806680 3.467671 1.890296
H -3.149495 1.687666 -0.140005
H -2.655819 -2.116686 -1.163846
C -0.157198 -1.724602 -3.895185
C 0.042549 -2.839768 -3.160282
C 0.144879 -2.440581 -1.795313
H -1.104498 4.737683 -1.576171
H -0.998631 3.422212 -3.673329
C 0.897084 1.541345 -6.800008
C 0.842731 1.315471 -5.420110
N 0.448877 -1.622319 1.062847
H -2.261673 1.267170 -7.488204
C 2.101640 1.392183 -4.595346
H -2.902061 -0.106545 -4.555521
N 5.826505 -0.107965 3.269323
H -3.051012 1.456109 -4.246073
H -3.602074 0.856618 -5.624378
H -0.807171 1.154943 -9.536654
H -0.325861 2.662194 -9.292330
C 1.945065 -5.260461 -1.367087
C 1.777071 5.178067 0.540215
C 3.121839 -4.331393 -1.551733
C 0.157198 1.724602 3.895185
C -0.042549 2.839768 3.160282
H -4.911309 1.913541 -1.633664
C -0.144879 2.440581 1.795313
H -4.360529 -1.995935 -2.698947
H -7.104571 1.413492 -2.450263
H -6.063188 2.088274 -3.460152
H -7.293651 1.240179 -4.028796
H -5.337504 -1.431959 -4.450131
C -0.897084 -1.541345 6.800008
H -6.765486 -1.593907 -3.745963
C -0.842731 -1.315471 5.420110
H -6.590862 -0.592388 -4.980977
C -2.101640 -1.392183 4.595346
C -1.945065 5.260461 1.367087
C -1.777071 -5.178067 -0.540215
C -3.121839 4.331393 1.551733
H -0.887153 -7.644219 -0.932709
H 1.776305 -9.340409 -0.567161
H 0.511148 -9.506618 -1.532423
H 1.958034 -9.216817 -2.153327
H 0.887153 7.644219 0.932709
H -1.776305 9.340409 0.567161
H -0.511148 9.506618 1.532423
N -0.057091 -1.085334 -1.682627
N 2.766239 0.227295 0.539477
H -1.958034 9.216817 2.153327
O 1.816501 0.365093 -0.435894
Fe 0.000000 0.000000 0.000000
H 1.104498 -4.737683 1.576171
C -0.618114 2.896592 -0.578616
H 0.998631 -3.422212 3.673329
C -0.913139 3.811455 -1.653867
C -0.864558 3.091214 -2.794363
C -0.572546 1.740228 -2.433076
H 2.261673 -1.267170 7.488204
C -0.423347 0.698932 -3.353639
C -0.228983 -0.632165 -2.972279
H 2.902061 0.106545 4.555521
H 3.051012 -1.456109 4.246073
H 3.602074 -0.856618 5.624378
C -0.465417 3.305723 0.754100
H 0.807171 -1.154943 9.536654
H 0.325861 -2.662194 9.292330
C -0.396760 1.029931 -4.821917
C -1.561198 1.044137 -5.592510
C -1.468705 1.272853 -6.964316
C -0.244737 1.510092 -7.585809
C -2.895259 0.789851 -4.947878
N 0.057091 1.085334 1.682627
C -0.147779 1.721761 -9.084353
N -2.766239 -0.227295 -0.539477
C -0.675173 4.768936 1.030883
C 0.397579 5.665331 0.878389
C 0.162016 7.039046 1.030124
C -2.134105 6.637017 1.505187
O -1.816501 -0.365093 0.435894
H 4.911309 -1.913541 1.633664
H 4.360529 1.995935 2.698947
C -3.414210 0.946116 -0.670357
C -4.451194 1.085334 -1.560962
H 7.104571 -1.413492 2.450263
C -4.828493 -0.011365 -2.364891
H 6.063188 -2.088274 3.460152
C -4.127170 -1.230235 -2.186203
H 7.293651 -1.240179 4.028796
C -3.121386 -1.297003 -1.280759
H 5.337504 1.431959 4.450131
C -6.637921 1.309788 -3.304553
H 6.765486 1.593907 3.745963
C -6.156925 -0.964584 -4.185476
H 6.590862 0.592388 4.980977
C 1.096625 -7.540516 -1.313934
C 1.359250 -9.033560 -1.398568
H -0.235067 -1.674881 -4.841348
H 0.104065 -3.727640 -3.492811
H 1.735236 1.720340 -7.207078
C -1.096625 7.540516 1.313934
C -1.359250 9.033560 1.398568
H 0.751561 1.483101 -9.389336
H 2.878557 1.440483 -5.189554
H 2.073204 2.191977 -4.028993
H 2.171011 0.595229 -4.029983
N -0.448877 1.622319 -1.062847
H 1.750079 4.683700 -0.304420
H 2.995065 -6.965175 -1.737646
H 2.099449 4.589941 1.254342
H 2.380859 5.945188 0.451493
N -5.826505 0.107965 -3.269323
C 0.618114 -2.896592 0.578616
C 0.913139 -3.811455 1.653867
C 0.864558 -3.091214 2.794363
C 0.572546 -1.740228 2.433076
H 3.570478 -4.197857 -0.689144
C 0.423347 -0.698932 3.353639
H 3.752613 -4.723477 -2.191315
C 0.228983 0.632165 2.972279
H 2.806680 -3.467671 -1.890296
H 3.149495 -1.687666 0.140005
H 2.655819 2.116686 1.163846
C 0.465417 -3.305723 -0.754100
C 0.396760 -1.029931 4.821917
C 1.561198 -1.044137 5.592510
C 1.468705 -1.272853 6.964316
C 0.244737 -1.510092 7.585809
H 0.235067 1.674881 4.841348
H -0.104065 3.727640 3.492811
C 2.895259 -0.789851 4.947878
H -1.735236 -1.720340 7.207078
C 0.147779 -1.721761 9.084353
C 0.675173 -4.768936 -1.030883
C -0.397579 -5.665331 -0.878389
C -0.162016 -7.039046 -1.030124
H -0.751561 -1.483101 9.389336
C 2.134105 -6.637017 -1.505187
H -2.878557 -1.440483 5.189554
H -2.073204 -2.191977 4.028993