68
Ni1 H9 C38 N4 O1 F15
C -1.080316 2.554039 2.274803
C -0.386713 3.269072 1.346700
C 0.119247 2.683180 0.205221
C 0.659676 3.440354 -0.868130
F 0.295341 -8.929990 0.769100
C 0.912580 2.577149 -1.852824
C 0.515624 1.306130 -1.390956
F 4.159747 0.475550 -5.389982
C 0.651422 0.137064 -2.104601
C 0.647908 0.346409 -5.827037
C 1.974942 0.387190 -6.112822
C 0.446735 -1.101329 -1.539501
C -1.241653 5.600407 1.433515
C 0.755818 -2.282629 -2.202470
C -1.079486 6.965223 1.560994
C 0.585855 -3.268179 -1.388008
C 0.170720 7.451880 1.756680
C 0.057169 -2.714912 -0.169285
C 1.214163 6.626737 1.837331
C -0.327153 -3.409554 0.921706
C 2.841279 0.399424 -5.117268
C -0.999996 -2.846771 1.993048
C -1.560580 -3.564523 3.038542
C -2.151353 -2.702677 3.819065
C -1.982603 -1.433018 3.283530
C -0.216879 4.723607 1.526070
C 1.030350 5.174921 1.815491
C 1.090341 0.243096 -3.511499
C 0.237621 0.239018 -4.582938
H -3.938638 0.062299 4.748034
F 2.436700 -7.324564 1.117796
C 2.431850 0.323299 -3.857760
C -0.200829 -4.874964 0.849583
C 1.068074 -5.449981 0.976289
C 1.214375 -6.808000 0.965287
C 0.152692 -7.619549 0.776707
C -1.067514 -7.098907 0.621721
C -1.235008 -5.716419 0.684813
F -0.242283 0.316502 -6.835706
F 2.372061 0.467393 -7.387213
F -2.120044 7.768615 1.486465
F 0.336088 8.766399 1.867813
N -1.279639 1.200098 2.220984
F 2.448812 7.106598 2.034523
N 0.018269 1.374099 -0.091090
N 0.035320 -1.324268 -0.299519
N -1.220698 -1.502346 2.142930
O -3.182373 -0.258515 4.924972
Ni -0.605607 -0.067114 1.002186
H -3.099188 2.248179 4.700610
H -1.836293 4.068387 3.591523
H 0.811647 4.378325 -0.882447
F -2.474137 5.164046 1.199206
H 1.287200 2.778337 -2.702681
H 1.044220 -2.353317 -3.106357
H 0.772970 -4.184400 -1.559782
H -1.521094 -4.505213 3.161623
F 2.095169 4.482997 1.854423
H -2.619222 -2.909303 4.619980
F -1.065020 0.145221 -4.304824
F 3.331013 0.302909 -2.868525
F 2.122587 -4.707761 1.137193
F -2.137133 -7.866956 0.428600
F -2.454086 -5.232481 0.486969
C -2.436971 -0.292499 3.806220
C -2.088533 0.951332 3.332473
C -2.487618 2.159820 3.978800
C -1.821562 3.148088 3.358365