14
H8 C4 O2
H 0.094839 2.092999 -1.848323
O -0.749398 -0.661102 1.381501
H 1.526395 2.120187 -1.134984
H 0.418700 3.210408 -0.751299
H 0.189505 -2.864654 0.504782
O 0.257725 0.060728 -0.437619
H 0.822819 -2.243418 -0.827099
H -0.748433 -2.534325 -0.749409
C -0.187790 -0.885399 0.289422
C 0.038142 -2.246137 -0.238773
C 0.070165 1.409232 0.018725
H -0.889644 1.585951 0.180794
C 0.568254 2.276515 -1.010868
H 0.566080 1.558764 0.861871