10
H6 C2 S1 O1
H -1.386564 0.093031 1.356761
H -0.783913 -1.320417 1.566339
C -0.610408 1.046964 -1.062552
C -1.107312 -0.703851 0.921209
H -1.323937 0.721231 -1.598753
H -0.951259 1.654805 -0.415032
H -1.843428 -1.084842 0.457443
S 0.188130 -0.318788 -0.235570
H 0.019963 1.497755 -1.614552
O 1.307396 0.282945 0.593832