24
H12 C8 N4
H 1.934036 1.163653 -2.357058
N 2.676885 -1.956722 1.371072
H 0.361162 -0.552324 2.821655
H 3.078637 -2.036608 0.652328
C -2.287289 0.803805 -0.710543
H -2.454142 0.772671 1.195895
C -0.818766 0.559079 -0.716473
C 1.614679 -1.203720 1.510176
H 3.002547 -2.350359 2.053249
C -0.289837 -0.194648 0.310869
H -2.530232 0.799219 -2.631312
H 1.350323 -1.515299 3.409696
C 1.079553 -0.444442 0.365473
H -3.754182 1.067114 0.506553
C 1.900340 0.060697 -0.631973
C 0.008977 1.079906 -1.706507
H -3.785705 1.182961 -1.840669
C 1.373149 0.812011 -1.661786
H -0.873659 -0.574045 0.968585
N -2.917852 0.978540 -1.842646
N -2.902417 0.846282 0.442313
N 1.016073 -1.090769 2.680328
H 2.839499 -0.132380 -0.597877
H -0.359513 1.617385 -2.404002