85
Ni1 H24 C48 N4 O8
H -1.828317 -5.027258 -0.654883
H -3.220751 -6.890457 -0.674649
H -6.278454 -4.621795 0.666973
H -4.920804 -2.712740 0.578026
C -0.000000 -0.000000 -9.265482
C -0.000000 -0.000000 -7.730646
C -0.138048 1.186703 -7.019067
C 0.138048 -1.186703 -7.019067
C -0.143483 1.190082 -5.632723
C 0.143483 -1.190082 -5.632723
C -0.000000 -0.000000 -4.909285
C -0.000000 -0.000000 -3.409039
C 1.017423 0.658395 -2.734522
C -1.017423 -0.658395 -2.734522
C 2.031476 1.835203 -1.183873
C -2.031476 -1.835203 -1.183873
C 2.096804 1.343579 -3.374202
C -2.096804 -1.343579 -3.374202
C 2.706605 2.096823 -2.424936
C -2.706605 -2.096823 -2.424936
C 3.224338 3.687058 -0.030275
C 2.732584 4.935787 -0.396195
C 3.561631 6.053948 -0.400148
C 4.892651 5.945342 -0.001861
C 5.374405 4.708197 0.389260
C 4.561880 3.586899 0.361588
C 2.316810 2.496976 -0.008532
C -2.316810 -2.496976 -0.008532
C 5.803766 7.157387 0.006786
C 1.764511 2.107925 1.203375
C -1.764511 -2.107925 1.203375
C 0.746545 0.958630 2.752789
C -0.746545 -0.958630 2.752789
C 2.106587 2.709120 2.451603
C -2.106587 -2.709120 2.451603
C 1.484828 1.993768 3.411988
C -1.484828 -1.993768 3.411988
C -0.000000 -0.000000 3.425577
C -0.000000 -0.000000 4.911245
C 1.172645 -0.290582 5.619612
C -1.172645 0.290582 5.619612
C 1.171232 -0.296374 7.006697
C -1.171232 0.296374 7.006697
C -0.000000 -0.000000 7.713581
C -0.000000 -0.000000 9.218027
C -3.224338 -3.687058 -0.030275
C -2.732584 -4.935787 -0.396195
C -3.561631 -6.053948 -0.400148
C -4.892651 -5.945342 -0.001861
H 3.442497 2.686192 -2.537602
C -5.374405 -4.708197 0.389260
C -4.561880 -3.586899 0.361588
C -5.803766 -7.157387 0.006786
O 5.559410 8.091641 -0.784598
N 1.027858 0.902879 -1.366956
O 6.777383 7.117323 0.804101
N -1.027858 -0.902879 -1.366956
H -0.238051 2.024901 -7.484064
O 0.231529 1.077614 -9.829803
H 3.220751 6.890457 -0.674649
H 0.238051 -2.024901 -7.484064
O -0.231529 -1.077614 -9.829803
N 0.901332 1.042378 1.384482
N -0.901332 -1.042378 1.384482
H -0.245660 2.032142 -5.166491
H 6.278454 4.621795 0.666973
H 0.245660 -2.032142 -5.166491
H 2.317463 1.264658 -4.299254
H 4.920804 2.712740 0.578026
H -2.317463 -1.264658 -4.299254
H -3.442497 -2.686192 -2.537602
Ni -0.000000 -0.000000 0.009084
O 1.017531 -0.442389 9.800138
O -1.017531 0.442389 9.800138
O -5.559410 -8.091641 -0.784598
O -6.777383 -7.117323 0.804101
H 2.671821 3.468156 2.569459
H -2.671821 -3.468156 2.569459
H 1.509829 2.135921 4.350877
H -1.509829 -2.135921 4.350877
H 1.981583 -0.477867 5.141520
H -1.981583 0.477867 5.141520
H 1.975061 -0.506829 7.468976
H -1.975061 0.506829 7.468976
H 1.828317 5.027258 -0.654883