10
H6 C2 S1 O1
H 0.857712 -1.397269 -1.510739
S -0.176522 -0.323796 0.233941
H 1.289291 0.127101 -1.495053
H 0.785090 1.720499 0.415853
O -1.314398 0.239272 -0.593072
H 1.928361 -0.911196 -0.440966
H -0.088443 1.427130 1.723364
C 0.567848 1.071348 1.073335
C 1.138861 -0.672187 -0.925700
H 1.370212 0.779992 1.520134