15
H10 C4 O1
H 0.952862 -1.027356 1.094376
C 1.254937 0.800711 1.847670
H -1.541410 -0.800639 -0.326525
H -1.504421 0.645658 -2.107067
C 0.446117 -0.229938 1.193167
H 1.538517 0.511452 2.706011
H -0.251737 -1.483395 -0.849814
C -0.723960 -0.661221 -0.789523
H 0.742027 1.595523 1.934021
H -1.556206 -0.816275 -2.624255
H -0.214748 -0.037099 -2.630356
O 0.047502 0.252682 -0.081687
H 2.015672 0.972703 1.305739
H -0.322015 -0.405839 1.725157
C -1.028500 -0.175213 -2.161572