45
P1 H20 C24
C -3.360736 0.863273 2.944842
C 3.360736 -0.863273 2.944842
P 0.000000 0.000000 0.000000
C -2.217599 1.623857 2.957745
C 2.217599 -1.623857 2.957745
C 0.372219 1.371764 -1.087618
C -0.372219 -1.371764 -1.087618
C -1.371764 0.372219 1.087618
C 1.371764 -0.372219 1.087618
C -1.214394 1.384035 2.034066
C 1.214394 -1.384035 2.034066
C -0.404726 2.515762 -1.098244
C 0.404726 -2.515762 -1.098244
C -2.515762 -0.404726 1.098244
C 2.515762 0.404726 1.098244
C -0.142085 3.513800 -2.039379
C 0.142085 -3.513800 -2.039379
C 0.863273 3.360736 -2.944842
C -0.863273 -3.360736 -2.944842
C 1.623857 2.217599 -2.957745
C -1.623857 -2.217599 -2.957745
C 1.384035 1.214394 -2.034066
C -1.384035 -1.214394 -2.034066
H -4.304394 -0.669650 2.047774
H 4.304394 0.669650 2.047774
H -4.051118 1.041503 3.572777
H 4.051118 -1.041503 3.572777
H -2.114631 2.315229 3.601011
H 2.114631 -2.315229 3.601011
H -0.421368 1.907079 2.044927
H 0.421368 -1.907079 2.044927
H -1.110759 2.621723 -0.471630
H 1.110759 -2.621723 -0.471630
H -2.621723 -1.110759 0.471630
H 2.621723 1.110759 0.471630
H -0.669650 4.304394 -2.047774
H 0.669650 -4.304394 -2.047774
H -1.907079 -0.421368 -2.044927
H 1.041503 4.051118 -3.572777
H -1.041503 -4.051118 -3.572777
C -3.513800 -0.142085 2.039379
H 2.315229 2.114631 -3.601011
H -2.315229 -2.114631 -3.601011
H 1.907079 0.421368 -2.044927
C 3.513800 0.142085 2.039379