129
Ni1 H44 C68 N8 O8
C 2.358021 -2.227018 -1.188699
C -4.203126 5.348813 2.273053
C 3.454398 -3.139052 -1.645950
C 3.176050 -4.465254 -1.973864
C 4.203126 -5.348813 -2.273053
C -4.778703 2.695259 1.689505
C 6.210074 3.567601 1.145886
C 7.274186 4.447709 1.208337
C 2.890855 1.003208 0.183833
C 4.778703 -2.695259 -1.689505
C 5.904544 6.248479 0.831650
C 3.971152 1.856280 0.296808
C 3.773518 3.147393 0.781178
C -2.890855 -1.003208 -0.183833
C 2.474734 3.514392 1.124591
C -3.971152 -1.856280 -0.296808
C -5.522037 4.904157 2.293842
C 1.448177 2.593730 0.968220
C -3.773518 -3.147393 -0.781178
C -5.801526 3.568177 2.031580
C 4.923324 4.070356 0.913113
C -2.474734 -3.514392 -1.124591
C -1.448177 -2.593730 -0.968220
C -6.646010 5.845240 2.568336
C -4.923324 -4.070356 -0.913113
C 4.777044 5.451205 0.773790
C -4.777044 -5.451205 -0.773790
N 7.137658 5.762119 1.041836
H 1.691044 6.255670 -8.428644
C -6.210074 -3.567601 -1.145886
N -0.970742 1.632802 -0.763016
C -7.274186 -4.447709 -1.208337
N -0.945947 0.299122 1.799422
O 6.303444 -7.108167 -2.477911
C -5.904544 -6.248479 -0.831650
N 1.639794 1.350937 0.499976
O 7.769050 -5.471051 -2.848266
N 0.970742 -1.632802 0.763016
N 0.945947 -0.299122 -1.799422
N -1.639794 -1.350937 -0.499976
N -7.137658 -5.762119 -1.041836
O -6.303444 7.108167 2.477911
O -7.769050 5.471051 2.848266
C 0.590828 4.085887 -6.523006
C -0.013591 2.833603 -6.607395
C 0.709201 4.902144 -7.761817
H 0.324722 -2.505144 7.471848
H -1.691044 -6.255670 8.428644
O 1.633569 5.854444 -7.694985
O 0.027285 4.697648 -8.747925
Ni 0.000000 0.000000 0.000000
H -2.928722 4.219341 -0.795187
H -1.642284 3.943229 -2.906774
H -3.215058 1.449590 3.749987
H 2.928722 -4.219341 0.795187
H 2.070751 0.586739 -4.701480
H 1.642284 -3.943229 2.906774
H 1.156757 4.092790 -3.303141
H 3.215058 -1.449590 -3.749987
H 1.455543 5.424457 -5.207403
C -0.590828 -4.085887 6.523006
H 6.723715 -3.275958 -2.070200
H -2.070751 -0.586739 4.701480
C 0.013591 -2.833603 6.607395
H -1.156757 -4.092790 3.303141
H -0.565410 1.164849 -5.535119
H -1.455543 -5.424457 5.207403
H -2.275128 4.788823 1.976212
C -0.709201 -4.902144 7.761817
H 6.358533 2.654705 1.298165
H -4.004558 6.287308 2.463809
H 0.565410 -1.164849 5.535119
H 8.150209 4.107171 1.359383
H 2.275128 -4.788823 -1.976212
H 5.801422 7.173168 0.677794
H -4.999473 1.791854 1.439317
H 4.004558 -6.287308 -2.463809
H 3.029355 0.106418 -0.138587
H 4.856305 1.570389 -0.000025
H 4.999473 -1.791854 -1.439317
H 2.281353 4.389035 1.463327
H -3.029355 -0.106418 0.138587
H 0.544661 2.827275 1.196284
H -4.856305 -1.570389 0.000025
H -2.281353 -4.389035 -1.463327
H -0.544661 -2.827275 -1.196284
H -6.723715 3.275958 2.070200
H 3.924674 5.835749 0.641527
H -3.924674 -5.835749 -0.641527
H -6.358533 -2.654705 -1.298165
H 6.982040 -7.584460 -2.596671
H -8.150209 -4.107171 -1.359383
H -5.801422 -7.173168 -0.677794
C -1.886500 2.425474 -0.118510
C -2.299820 3.502600 -0.994343
C -1.606388 3.362243 -2.144166
C 1.886500 -2.425474 0.118510
C -0.772278 2.188190 -1.994807
O -1.633569 -5.854444 7.694985
C 2.299820 -3.502600 0.994343
C 0.109866 1.702693 -2.981417
O -0.027285 -4.697648 8.747925
C 1.606388 -3.362243 2.144166
C 0.915342 0.558265 -2.865529
H -6.982040 7.584460 2.596671
C 0.772278 -2.188190 1.994807
C -1.929554 1.217483 2.065714
C -0.109866 -1.702693 2.981417
C -2.517996 0.947123 3.354641
C -0.915342 -0.558265 2.865529
C 1.898534 0.151574 -3.847506
C 1.929554 -1.217483 -2.065714
C 0.262164 2.522689 -4.223813
C 2.517996 -0.947123 -3.354641
C 0.856519 3.783026 -4.145008
C -1.898534 -0.151574 3.847506
C 1.034338 4.557579 -5.288054
C -0.262164 -2.522689 4.223813
C -0.856519 -3.783026 4.145008
C -1.034338 -4.557579 5.288054
C -0.164643 2.053010 -5.466546
C 5.522037 -4.904157 -2.293842
H -0.324722 2.505144 -7.471848
C 5.801526 -3.568177 -2.031580
C -2.358021 2.227018 1.188699
C 0.164643 -2.053010 5.466546
C -3.454398 3.139052 1.645950
C 6.646010 -5.845240 -2.568336
C -3.176050 4.465254 1.973864