63
Fe1 H20 C36 Br2 N4
C 2.643638 -2.482178 -2.350561
H -1.577249 -0.981849 3.962969
C -0.473185 -3.652871 4.256360
H 2.112435 -3.831704 -0.114075
C 1.804477 -2.191550 -1.196911
C -0.946586 2.721139 -1.059536
C -0.074272 -3.011767 3.090567
H -3.142335 0.613699 5.015150
C -0.745730 3.652656 -2.158539
H -1.731605 5.394981 -1.727530
C -0.374587 -1.700927 2.531957
Br 2.106515 1.280055 0.770441
H -4.460580 2.453826 5.578791
H -0.995605 6.513469 -3.652682
C -1.168109 4.960266 -2.356633
H -4.653945 4.295051 4.138900
N 0.267162 -1.562718 1.326697
C -1.224728 -0.763168 3.108023
C -0.739917 5.610412 -3.504970
H 0.322597 5.427898 -5.229547
N -1.204061 0.971128 1.376031
C -1.613093 0.449935 2.575978
H -3.535909 4.310788 2.096629
H 1.011127 3.209975 -4.902297
C 0.057480 4.963280 -4.444587
C -2.526741 1.390063 3.220352
H 1.577249 0.981849 -3.962969
C 0.473185 3.652871 -4.256360
C -3.210686 1.359493 4.430925
H 3.142335 -0.613699 -5.015150
C 0.074272 3.011767 -3.090567
C -3.991291 2.449025 4.752733
Br -2.106515 -1.280055 -0.770441
C 0.374587 1.700927 -2.531957
H 4.460580 -2.453826 -5.578791
C -4.111417 3.556426 3.888255
C 1.224728 0.763168 -3.108023
N -0.267162 1.562718 -1.326697
H 4.653945 -4.295051 -4.138900
C -3.448786 3.572141 2.687548
N 1.204061 -0.971128 -1.376031
C 1.613093 -0.449935 -2.575978
H 3.535909 -4.310788 -2.096629
C -2.643638 2.482178 2.350561
Fe 0.000000 0.000000 0.000000
C -1.664330 2.994545 0.087283
C 2.526741 -1.390063 -3.220352
C 0.946586 -2.721139 1.059536
C -1.804477 2.191550 1.196911
H -2.112435 3.831704 0.114075
C 3.210686 -1.359493 -4.430925
C 0.745730 -3.652656 2.158539
H 1.731605 -5.394981 1.727530
C 3.991291 -2.449025 -4.752733
C 1.168109 -4.960266 2.356633
H 0.995605 -6.513469 3.652682
C 4.111417 -3.556426 -3.888255
C 0.739917 -5.610412 3.504970
H -0.322597 -5.427898 5.229547
H -1.011127 -3.209975 4.902297
C 3.448786 -3.572141 -2.687548
C -0.057480 -4.963280 4.444587
C 1.664330 -2.994545 -0.087283