98
Hg1 H37 C53 N4 Cl1 O2
C -3.708396 -0.522792 4.145723
H 1.640459 4.755362 1.848205
C -3.501703 0.763148 4.380164
C -2.398936 1.161052 3.492779
C -1.798441 2.432500 3.494650
C -0.690968 2.818546 2.705283
C 0.060938 4.059689 2.885591
C 1.021868 4.075500 1.988370
C 0.931127 2.819863 1.250955
C 1.759729 2.446993 0.176399
C 1.698617 1.154465 -0.417803
C 1.291507 -0.113030 0.134161
H -3.909406 6.062384 6.619180
C 1.228812 -1.056405 -0.888148
H -4.575004 5.927993 4.400353
C 1.884660 0.918621 -1.789189
H 1.270945 4.842321 -0.882249
C 0.779497 -2.399001 -0.823043
C -3.628903 -3.316024 3.170463
C -4.596914 -3.943184 2.343662
C -4.457523 -4.613823 5.012435
C -3.590245 -3.652003 4.519342
C -2.415361 3.503678 4.386511
C -2.016242 3.584049 5.715264
C -2.576511 4.543235 6.551118
C -3.374756 4.381175 3.893108
C 2.691613 3.435165 -0.423400
C 4.022043 3.153207 -0.547083
C 1.340808 -3.384538 -1.793221
C 2.683316 -3.433288 -2.016478
C 3.227297 -4.318689 -2.958770
C 2.377747 -5.102639 -3.712636
H -0.108367 4.717153 3.520317
C 1.061159 -5.113179 -3.487200
C 0.507455 -4.258082 -2.520736
C 1.619401 -0.798163 -3.455392
N -0.912804 -1.945760 0.910989
N -2.032760 0.074063 2.758049
N -0.093722 2.063583 1.765637
N 1.621906 -0.360732 -2.071316
Cl -2.112482 1.159735 -1.426391
C -3.534712 5.420731 6.058320
C -3.933831 5.340360 4.729568
C 2.179342 4.647322 -0.928447
H -4.419387 -4.832539 5.915125
H -6.094087 -5.266017 2.352375
H 5.821078 3.830434 -1.136218
H 4.749584 -2.362109 -4.950058
H 3.943388 -3.078863 -6.084520
H 5.444816 0.029266 -5.385240
H 6.600337 1.302031 -6.941831
H 6.634850 0.659061 -9.170596
H 5.512649 -1.256675 -9.841923
H 4.357121 -2.530757 -8.285838
C -5.444914 -4.873383 2.889048
C -5.351539 -5.242301 4.232808
H 2.798032 6.386504 -1.836522
H 5.018775 5.877925 -2.007292
C 4.915135 4.037291 -1.097323
C 2.985511 -1.102520 -3.964291
C 4.132142 -2.215860 -5.684927
C 4.786253 -1.377890 -6.681583
C 5.458854 -0.228976 -6.277610
C 6.150730 0.533893 -7.211143
C 6.171205 0.149164 -8.546086
C 5.499797 -0.999750 -8.949454
C 4.806728 -1.762618 -8.016526
H -5.897254 -5.910305 4.579895
O 2.884400 -1.667754 -5.145130
O 4.041019 -0.828467 -3.391574
Hg -1.298583 0.324400 0.657642
H -0.180439 -4.951119 0.035028
H -1.908288 -4.869430 1.764876
H -4.341613 -1.047182 4.580047
H -3.959335 1.303349 4.982265
H 1.815048 -0.398941 0.911937
H 2.152102 1.557639 -2.410313
H -4.655341 -3.724469 1.442296
C 3.107275 5.570933 -1.515641
H -2.986277 -3.233018 5.088121
C 4.432856 5.275799 -1.610514
H -1.375062 2.997734 6.044984
H -2.308838 4.597255 7.440347
H -3.641236 4.327155 3.004484
H 4.334830 2.331048 -0.244330
H 3.248718 -2.870688 -1.534491
H 4.148423 -4.375345 -3.075017
H 2.729195 -5.634934 -4.390236
H 0.511213 -5.686319 -3.969718
H -0.408087 -4.268622 -2.359026
H 1.223525 -0.103808 -4.007131
H 1.067002 -1.591335 -3.536711
C -0.170604 -2.816668 0.102288
C -0.537698 -4.182980 0.417759
C -1.494685 -4.135548 1.370085
C -1.761334 -2.760013 1.667160
C -2.696756 -2.281738 2.627543
C -2.817106 -0.995797 3.122881