17
H9 C8
H 0.136125 -0.580762 1.750955
C 0.675641 -0.459475 -1.412180
C -0.934544 1.154893 -0.702369
C 1.792316 -1.990197 0.212212
C 0.060843 -0.275454 0.854093
H -1.528431 1.865884 -0.903203
H -2.093041 2.028994 1.529447
H -0.804893 1.673498 2.410556
H 1.512101 -2.801563 -0.259353
C -0.809075 0.728298 0.583361
C 0.842933 -0.876032 -0.112666
C -1.486608 1.309638 1.804117
C -0.215188 0.573553 -1.712446
H -1.992666 0.611194 2.262884
H 1.169153 -0.873523 -2.109191
H 1.783951 -2.153306 1.177987
H 2.695692 -1.739259 -0.070333