91
Hg1 H35 C48 Br1 N4 O2
C 4.330061 -4.985576 -0.718707
C 4.876963 -4.886489 -1.985748
C 7.272688 -1.959786 -2.350478
C 8.268242 -0.867409 -2.435033
O 6.185054 -1.590021 -1.461911
C -5.346398 -4.900989 2.455203
C -4.877608 -5.553516 3.569504
C -3.660101 -5.218794 4.088409
C -2.898217 -4.211003 3.509762
H 2.872548 4.045875 -5.650580
H 3.165049 6.135168 -4.665530
H -7.116095 4.692359 -0.092539
H -7.011681 5.785945 1.978888
H -5.286537 5.306218 3.450426
Hg -0.409096 0.249379 0.747030
H -5.203430 1.046669 2.551228
H -4.823492 -1.341094 3.002397
H -1.379270 -5.025453 1.271607
H 0.664518 -5.036328 -0.147170
H -0.184216 -0.345387 -1.878517
H 3.209904 1.608567 -1.943618
H -5.505658 3.075544 -0.643571
H -3.662646 3.711153 2.907231
H -4.917636 -3.444888 1.088293
H -1.219347 4.581188 -2.443447
H -3.189131 4.513519 -0.958819
H 2.865882 -4.255713 0.499724
H 2.797591 -2.733151 -3.259004
C -6.419269 4.486934 0.520461
H 1.732122 2.366223 -4.514383
C -6.353345 5.141878 1.746380
C -5.334679 4.851866 2.616480
H 4.032842 -1.500601 -0.381896
H 4.440028 0.044920 -0.341414
C -0.687974 2.677986 -1.600998
C -1.442792 3.887577 -1.834252
C -2.514004 3.850117 -1.031799
C -2.445817 2.603066 -0.294114
C -3.381859 2.218800 0.712791
C -3.426764 0.975375 1.340107
C -4.487689 0.519815 2.215555
C -4.274541 -0.776780 2.468827
C -3.046911 -1.171921 1.774627
H 2.322071 6.555685 -2.549815
C -2.535214 -2.470932 1.737562
H 1.153356 4.886909 -1.396818
C -1.360868 -2.880574 1.033077
C -0.948096 -4.266588 0.896305
C 0.169801 -4.272630 0.127585
C 0.468603 -2.884199 -0.192866
C 1.541398 -2.428639 -0.949490
C 1.624673 -1.063166 -1.391764
C 0.597430 -0.182256 -1.723110
C 1.181164 1.101047 -1.979228
C 2.557828 0.929456 -1.818261
C 0.548569 2.380724 -2.150808
C -4.435731 3.222966 1.071648
C -5.456285 3.525062 0.192178
C -4.365848 3.899660 2.296091
C -3.346717 -3.537934 2.388381
C -4.587789 -3.891990 1.859463
C 2.650518 -3.339759 -1.309499
C 3.227720 -4.201336 -0.377614
H 4.704602 -5.584934 -0.082554
C 4.296218 -4.059955 -2.933202
H 5.653594 -5.386759 -2.205353
C 3.192864 -3.295049 -2.603448
H 4.655812 -4.020078 -3.811624
C 1.309975 3.441683 -2.864422
C 1.837808 3.219341 -4.108551
C 4.122830 -0.683734 -0.932195
C 5.152645 -0.926619 -2.003973
H 6.914156 -2.150711 -3.252706
H 7.710952 -2.781486 -2.014297
Br 1.755625 0.894171 1.663168
H 8.994692 -1.133253 -3.038208
N -1.351138 1.911871 -0.666581
H 7.836330 -0.059001 -2.781768
N -2.549692 -0.068668 1.122570
H 8.633412 -0.688568 -1.544232
N -0.507805 -2.079416 0.375393
N 2.824329 -0.327262 -1.462976
O 5.069572 -0.565313 -3.137808
C 2.522054 4.215048 -4.783297
C 2.696384 5.453640 -4.199206
C 2.195019 5.702567 -2.948468
C 1.500333 4.712902 -2.262936
H -6.190588 -5.137832 2.089106
H -5.398215 -6.233835 3.979709
H -3.331025 -5.679188 4.851417
H -2.058402 -3.982619 3.889022