82
Hg1 H31 C45 N4 Cl1
Hg 0.197367 -0.486881 0.526444
N 1.856904 0.393911 -0.938560
C 2.192742 2.646080 -0.041699
C -4.127131 2.149222 3.355741
H 1.564143 5.186827 -0.203154
C -5.054765 -5.918853 -1.307740
H 6.097756 4.793691 0.850240
C 0.887865 2.673683 0.566710
C 1.649462 3.737660 2.783759
C -3.862392 -6.102874 -0.639278
C -0.331694 2.143367 0.139445
H -4.910058 -1.939812 0.574585
C -3.028023 -5.017149 -0.409895
H -1.342556 -4.495198 -2.474349
C 3.060988 -2.402793 -3.170377
H 0.940980 -4.051874 -3.257995
C 2.971905 -2.290707 -4.526005
H -5.068985 0.352088 1.480307
H -3.061481 4.421466 1.269628
Cl 0.867790 -0.244308 2.814080
H 4.349554 -0.041048 -2.910474
C 3.851024 -2.972004 -5.368720
H -4.115421 5.839266 2.781790
C -1.287768 2.354155 1.161335
C 4.830519 -3.765804 -4.840055
H -5.140084 4.960983 4.680851
H -5.215366 2.639806 5.003761
C -0.624037 3.055945 2.159598
C 4.943441 -3.867853 -3.492301
C -2.609375 1.840569 1.367092
C 4.069340 -3.207049 -2.647618
H -4.144697 1.209460 3.501444
H 2.521889 3.806668 2.341727
H -4.822230 -2.726085 -1.855111
H 1.380121 4.618034 3.113559
H -6.219118 -4.549568 -2.236105
C -4.220397 -1.286119 0.572616
H 1.714705 3.112406 3.536886
H -5.637778 -6.657447 -1.452459
C -2.890007 -1.445883 0.024261
C -3.011294 0.590061 0.908324
H -3.613545 -6.966937 -0.337043
C -2.423262 -2.589742 -0.660937
C -4.300278 -0.042303 1.080608
N 0.652401 3.246658 1.825859
H -2.212474 -5.151819 0.061671
C -1.158953 -2.729849 -1.263439
H 2.300227 -1.739062 -4.904046
C -0.792165 -3.768314 -2.207555
H 4.424836 2.158842 -1.772415
H 3.768215 -2.885012 -6.311852
H 5.424405 -4.240077 -5.409084
H -0.489367 1.849351 -0.725913
C 0.445796 -3.528250 -2.637773
C 0.894975 -2.307855 -1.974233
H 5.633520 -4.403187 -3.122137
C 2.115788 -1.671727 -2.272531
C 3.057642 3.821306 0.137476
H 4.157169 -3.303242 -1.707439
C 2.526908 -0.391525 -1.821639
C 4.416053 3.721767 0.441681
C 3.715936 0.293118 -2.286313
H -1.024701 3.359162 2.966872
C 5.175977 4.868972 0.633654
C 4.599238 6.117807 0.511579
C 3.247937 6.243276 0.205405
C 2.486340 5.102344 0.014416
C -3.460891 2.666573 2.238357
C -3.485985 4.054678 2.037523
H 4.822154 2.865650 0.517486
C -3.352151 -3.741129 -0.849957
C -4.112911 4.899921 2.934384
H 5.127462 6.897388 0.637592
N -2.172324 -0.297423 0.241831
C 3.758595 1.490510 -1.669045
C -4.568782 -3.586384 -1.539093
C -4.733565 4.381316 4.049800
H 2.852291 7.102320 0.128616
N -0.117978 -1.854912 -1.157115
C 2.582533 1.560773 -0.812547
C -5.401896 -4.671272 -1.763555
C -4.761586 3.000320 4.251618