470
Zn6 Mo6 H168 C240 I8 N30 O12
N -0.459953 11.458401 -0.593989
N 2.092544 10.554969 0.415616
N 1.103160 10.700998 3.078590
N -1.472737 11.540177 2.064323
H -8.614980 -8.041325 -5.133267
H -9.054709 -9.501614 -4.770770
H -7.791100 -10.870391 -3.315559
H -9.198986 -8.352853 -3.712292
H -8.475618 -7.278080 2.177164
H -10.313206 -5.418646 2.380417
H -12.000342 -3.232106 2.219435
H -12.323333 -1.277266 3.591585
H -9.499180 -1.882799 -8.415589
Zn -0.226328 -10.766419 -1.201938
C -8.659989 -8.664382 -4.402214
C -8.248718 -6.906194 3.022764
C -8.876284 -5.825580 3.661260
C -9.913211 -5.066229 3.168332
C -10.478183 -3.874634 3.612980
C -11.523463 -3.031560 3.015345
C -11.694782 -1.972364 3.748603
H 1.074827 -9.766413 -9.386108
H -0.145942 -10.484875 -8.643304
Zn 8.426321 3.753916 -5.900649
Zn -4.551436 -1.902854 -9.622960
H 2.598402 -12.428033 2.793542
H -1.874180 -10.837292 2.832917
Mo 1.414103 0.440423 -1.156055
H -4.163639 -9.770307 1.985012
Mo -1.167469 -0.122859 -1.475956
Mo 0.435611 -1.827114 -0.187994
H -5.679081 -11.436984 -2.481168
H 4.298892 2.928366 -3.082960
H 5.941983 4.149168 -4.204030
H -3.298200 -10.111041 -5.320696
H 7.692082 0.862544 -5.359169
H -1.150308 -10.576387 -6.289770
H 1.215112 -11.215020 -5.299425
H 6.033644 -0.440034 -4.339403
H 3.536978 -12.044464 -4.436752
H -4.097649 1.618000 -6.027939
H 4.515575 -12.348204 -2.216729
H -4.666021 0.697045 -8.091252
H 4.185204 -14.340038 -0.375452
H -3.386535 -2.840749 -6.924881
H 6.260270 -14.970883 0.571272
H -2.818720 -2.022987 -4.825970
H -0.518813 -5.845050 0.003140
H 8.574498 -13.438553 1.572061
H -1.051592 -8.084160 -0.010144
H 2.210339 -8.958386 -1.918357
H 2.826604 -6.744588 -2.054898
H -6.665598 -8.031590 3.680901
H 4.425567 -10.810033 1.598655
H 8.497392 0.319317 -9.727686
H 7.095658 2.535062 -9.881489
H 5.511127 4.624249 -10.029558
H 4.924026 6.501207 -8.516555
H 3.761255 6.253931 -6.085921
H 2.029960 7.805732 -5.872557
H 6.467664 9.283544 -6.056888
H -4.872797 2.943943 -11.279920
H -2.554939 2.244951 -11.846103
H -1.265662 0.013629 -11.689665
H 0.247293 -2.165122 -11.377934
H -0.122230 -4.439279 -10.514294
H -2.683295 -7.120369 -10.800059
H -1.655137 -9.084945 -10.336997
H 0.885878 -9.591178 -7.807055
H 0.367972 -7.476680 -7.461621
H -0.571113 -5.463428 -7.930810
H -4.382256 -6.921770 -8.166329
H -6.699871 -6.150737 -7.801373
H -8.063052 -4.047921 -8.147606
H -9.148163 0.428351 -9.174805
H -7.270692 2.330621 -8.115834
H -8.301394 4.378920 -7.960622
H -8.901064 6.641394 -10.454385
H -10.266671 5.864521 -10.147406
H -9.304389 6.294819 -8.945184
H -8.686065 4.489902 -11.999099
H -7.468708 2.470809 -12.088626
H -5.081584 -9.404261 -0.303356
H -4.258156 -7.815467 -3.622058
H -6.370175 -7.248875 -4.454280
H 1.238054 10.013689 -5.529593
H 2.247382 11.220861 -5.240987
H 1.880839 10.825609 -6.747955
H 4.698259 10.800298 -5.842236
H -0.414286 11.810818 -3.779035
H -7.995383 13.121184 -3.029723
H -7.873035 14.597049 -2.423201
H -6.444555 11.481766 -2.512834
C 4.984597 1.133184 -3.637035
C 4.977818 2.476650 -3.571002
C 5.971122 3.199006 -4.219230
C 6.981011 1.294790 -4.900560
C 5.995288 0.508181 -4.294708
C 3.876735 0.330999 -2.984349
C -3.435401 -0.103194 -5.192533
C -3.954502 0.693151 -6.188264
C -4.271732 0.147976 -7.423351
C -3.526817 -1.919793 -6.738141
C -3.196277 -1.446660 -5.477411
C -3.079675 0.467292 -3.866747
C 1.218487 -6.033914 -0.970288
C 0.068391 -6.464213 -0.411474
C -0.253058 -7.811573 -0.444985
C 1.622521 -8.304177 -1.556078
C 2.026370 -6.993811 -1.607535
C 1.589749 -4.595043 -1.044482
C 1.699454 -11.906223 0.893986
C 7.302925 6.431113 -5.003304
C 1.830467 -12.114558 2.329227
C -7.266806 -7.313127 3.831286
C 0.645088 -11.771877 2.858070
C -0.242021 -11.324055 1.757738
C -1.545338 -10.868444 1.943520
C -2.391715 -10.461511 0.937177
C -3.727704 -9.933859 1.157505
C -3.252731 -10.066259 -1.082957
C -3.364339 -10.093518 -2.476436
H -12.936095 -0.120717 6.930864
H -13.942863 1.948999 6.679070
H -13.908783 4.127750 4.697037
H -12.525693 4.766383 5.188727
C -7.073295 -10.251229 -3.377294
H -13.626147 4.314667 6.260000
C -5.817670 -10.588069 -2.881486
H -11.074627 3.074395 4.182123
C -2.385028 -10.278488 -3.357431
H -10.017203 1.035832 4.425695
C -2.500736 -10.280435 -4.835927
H -10.122050 0.623057 8.056302
C -1.351982 -10.558863 -5.363390
C 8.784243 0.732092 -8.920168
C -0.427828 -10.837292 -4.268257
C 0.869151 -11.201390 -4.416488
C 8.361944 2.007411 -8.422589
C 1.769127 -11.573277 -3.355426
C 7.409288 2.819331 -9.032093
C 3.101344 -11.947111 -3.598129
C 6.858334 4.008980 -8.528191
C 3.609226 -12.128187 -2.402310
C 5.882129 4.789748 -9.170339
C 2.599865 -11.947111 -1.437062
C 5.565279 5.817791 -8.354180
C 2.725233 -12.091193 -0.042496
C 6.401624 5.663974 -7.174617
C 4.067360 -12.490339 0.503270
C 6.368605 6.565459 -6.127002
C 4.637047 -13.742293 0.208995
C 5.292760 7.593503 -6.015388
C 5.891272 -14.121968 0.781965
C 3.962289 7.180728 -6.016635
C 6.566665 -13.292524 1.620253
C 2.932742 8.095842 -5.915380
C 3.253962 9.468514 -5.879108
C 5.993798 -12.067828 1.917779
C 4.778069 -11.662842 1.372579
C 5.571927 8.972016 -6.000644
C -5.155148 0.961844 -10.654327
C -4.501555 2.077505 -11.166672
C -3.237185 1.695882 -11.472846
C -3.123222 0.325158 -11.133331
C -1.999550 -0.424457 -11.275571
C -1.775445 -1.721194 -10.906896
C -0.568209 -2.488332 -11.014880
C -0.755503 -3.732499 -10.532582
C -2.100092 -3.769493 -10.056035
C -2.743233 -4.904624 -9.490714
C -1.956997 -6.139055 -9.286381
C -2.095700 -7.172940 -10.056363
C -1.424773 -8.321700 -9.820391
C -0.454594 -8.452153 -8.904246
C 0.418308 -9.684637 -8.664202
C -0.245643 -7.412427 -8.181569
C -0.870330 -6.238355 -8.389976
C -4.119495 -4.914359 -9.043613
C -4.757606 -6.078696 -8.383625
C -6.001443 -5.628927 -8.175151
C -6.141898 -4.293250 -8.575531
C -7.308637 -3.590364 -8.500495
H 12.936095 0.120717 -6.930864
C -7.494097 -2.301415 -8.878517
H 13.942863 -1.948999 -6.679070
C -8.680577 -1.540118 -8.755490
H 13.908783 -4.127750 -4.697037
C -8.510010 -0.274534 -9.176630
H 12.525693 -4.766383 -5.188727
H 13.626147 -4.314667 -6.260000
C -7.088743 -0.218070 -9.646088
C -6.505389 0.940426 -10.157196
H 11.074627 -3.074395 -4.182123
H 10.017203 -1.035832 -4.425695
C -7.198609 2.182645 -10.130015
C -7.511570 2.780390 -8.915980
H 10.122050 -0.623057 -8.056302
C -8.158634 3.991457 -8.816972
C -8.613083 4.670978 -9.981506
C -9.334174 5.981344 -9.872257
C -8.374548 4.084915 -11.198169
C -7.650735 2.852431 -11.237875
C -4.212116 -9.729419 -0.109463
C -4.769738 -9.680743 -2.972462
C -4.975496 -8.436576 -3.566349
C -6.238866 -8.099736 -4.046761
C -7.277195 -9.014851 -3.954051
C 2.039481 10.477087 -5.846709
N 0.459953 -11.458401 0.593989
C 4.511242 9.871554 -5.900006
N -2.092544 -10.554969 -0.415616
N -1.103160 -10.700998 -3.078590
N 1.472737 -11.540177 -2.064323
I 0.703427 -1.564262 -2.926484
I -3.121207 1.302188 -0.148589
I -2.257978 -2.515786 -0.528594
I -0.182210 2.244562 -2.547722
N 6.961216 2.595420 -4.864467
N 8.257504 5.521840 -4.853425
N 9.012710 2.315045 -7.230644
H -1.238054 -10.013689 5.529593
N 7.173942 4.585308 -7.330855
H -2.247382 -11.220861 5.240987
N -4.024470 -1.156549 -7.692896
H -1.880839 -10.825609 6.747955
N -4.336133 -0.142135 -10.623610
H -4.698259 -10.800298 5.842236
N -2.732517 -2.546744 -10.290776
N -4.969576 -3.866845 -9.124720
C -7.859928 13.641046 -2.210265
N -6.538954 -1.427189 -9.451144
N 0.464680 -8.734475 -1.036117
C -10.765099 -2.038563 4.843082
C -10.648094 -1.092296 5.847594
C -11.359197 0.200546 5.662143
C -12.537995 0.523757 6.355818
C -13.133317 1.777658 6.212491
C -12.618995 2.762867 5.444237
C -13.219727 4.104386 5.393680
C -11.458709 2.427974 4.762176
C -10.832714 1.191596 4.890445
C -9.813914 -1.220802 7.004474
C -9.681333 -0.218070 8.018559
O 2.994155 1.035832 -2.419919
O 3.979645 -0.887856 -3.002859
O -2.426975 -0.329052 -3.133341
O -3.395111 1.635524 -3.580100
O 0.801578 -3.888263 -0.359919
O 2.550938 -4.225103 -1.686460
Zn -8.426321 -3.753916 5.900649
Zn 4.551436 1.902854 9.622960
H 0.414286 -11.810818 3.779035
Mo -1.414103 -0.440423 1.156055
Mo 1.167469 0.122859 1.475956
Mo -0.435611 1.827114 0.187994
H -4.298892 -2.928366 3.082960
H -5.941983 -4.149168 4.204030
H -7.692082 -0.862544 5.359169
H -6.033644 0.440034 4.339403
H 4.097649 -1.618000 6.027939
H 4.666021 -0.697045 8.091252
H 3.386535 2.840749 6.924881
H 2.818720 2.022987 4.825970
H 0.518813 5.845050 -0.003140
H 1.051592 8.084160 0.010144
H 7.995383 -13.121184 3.029723
H -2.210339 8.958386 1.918357
H 7.873035 -14.597049 2.423201
H -2.826604 6.744588 2.054898
H 6.444555 -11.481766 2.512834
H 6.665598 8.031590 -3.680901
C 10.765099 2.038563 -4.843082
C 10.648094 1.092296 -5.847594
C 11.359197 -0.200546 -5.662143
C 12.537995 -0.523757 -6.355818
C 13.133317 -1.777658 -6.212491
C 12.618995 -2.762867 -5.444237
C 13.219727 -4.104386 -5.393680
C 11.458709 -2.427974 -4.762176
C 10.832714 -1.191596 -4.890445
C 9.813914 1.220802 -7.004474
C 9.681333 0.218070 -8.018559
H -8.497392 -0.319317 9.727686
H -7.095658 -2.535062 9.881489
H -5.511127 -4.624249 10.029558
H -4.924026 -6.501207 8.516555
H -3.761255 -6.253931 6.085921
H -2.029960 -7.805732 5.872557
H -6.467664 -9.283544 6.056888
H 4.872797 -2.943943 11.279920
H 2.554939 -2.244951 11.846103
H 1.265662 -0.013629 11.689665
H -0.247293 2.165122 11.377934
H 0.122230 4.439279 10.514294
H 2.683295 7.120369 10.800059
H 1.655137 9.084945 10.336997
H -0.885878 9.591178 7.807055
H -0.367972 7.476680 7.461621
H 0.571113 5.463428 7.930810
H 4.382256 6.921770 8.166329
H 6.699871 6.150737 7.801373
H 8.063052 4.047921 8.147606
H 9.148163 -0.428351 9.174805
H 7.270692 -2.330621 8.115834
H 8.301394 -4.378920 7.960622
H 8.901064 -6.641394 10.454385
H 10.266671 -5.864521 10.147406
H 9.304389 -6.294819 8.945184
H 8.686065 -4.489902 11.999099
H 7.468708 -2.470809 12.088626
Zn 0.226328 10.766419 1.201938
H 5.081584 9.404261 0.303356
H 4.258156 7.815467 3.622058
H 6.370175 7.248875 4.454280
H -1.074827 9.766413 9.386108
H 0.145942 10.484875 8.643304
N -10.089992 -3.204848 4.749247
H -2.598402 12.428033 -2.793542
C -2.039481 -10.477087 5.846709
H 1.874180 10.837292 -2.832917
C -4.511242 -9.871554 5.900006
H 4.163639 9.770307 -1.985012
H 5.679081 11.436984 2.481168
H 3.298200 10.111041 5.320696
H 1.150308 10.576387 6.289770
H -1.215112 11.215020 5.299425
H -3.536978 12.044464 4.436752
H -4.515575 12.348204 2.216729
H -4.185204 14.340038 0.375452
H -6.260270 14.970883 -0.571272
H -8.574498 13.438553 -1.572061
C -4.984597 -1.133184 3.637035
H -4.425567 10.810033 -1.598655
C -4.977818 -2.476650 3.571002
C -5.971122 -3.199006 4.219230
C -6.981011 -1.294790 4.900560
C -5.995288 -0.508181 4.294708
C -3.876735 -0.330999 2.984349
C 3.435401 0.103194 5.192533
C 3.954502 -0.693151 6.188264
C 4.271732 -0.147976 7.423351
C 3.526817 1.919793 6.738141
C 3.196277 1.446660 5.477411
C 3.079675 -0.467292 3.866747
C -1.218487 6.033914 0.970288
C -0.068391 6.464213 0.411474
C 0.253058 7.811573 0.444985
C -1.622521 8.304177 1.556078
C -2.026370 6.993811 1.607535
C -1.589749 4.595043 1.044482
N 10.089992 3.204848 -4.749247
C -7.302925 -6.431113 5.003304
C 7.266806 7.313127 -3.831286
C -8.784243 -0.732092 8.920168
C -8.361944 -2.007411 8.422589
C -7.409288 -2.819331 9.032093
C -6.858334 -4.008980 8.528191
C -5.882129 -4.789748 9.170339
C -5.565279 -5.817791 8.354180
C -6.401624 -5.663974 7.174617
C -6.368605 -6.565459 6.127002
C -5.292760 -7.593503 6.015388
C -3.962289 -7.180728 6.016635
C -2.932742 -8.095842 5.915380
C -3.253962 -9.468514 5.879108
C 7.859928 -13.641046 2.210265
C -5.571927 -8.972016 6.000644
C 5.155148 -0.961844 10.654327
C 4.501555 -2.077505 11.166672
H 8.614980 8.041325 5.133267
C 3.237185 -1.695882 11.472846
H 9.054709 9.501614 4.770770
C 3.123222 -0.325158 11.133331
H 9.198986 8.352853 3.712292
C 1.999550 0.424457 11.275571
C 1.775445 1.721194 10.906896
C 0.568209 2.488332 11.014880
C 0.755503 3.732499 10.532582
C 2.100092 3.769493 10.056035
C 2.743233 4.904624 9.490714
C 1.956997 6.139055 9.286381
C 2.095700 7.172940 10.056363
C 1.424773 8.321700 9.820391
C 0.454594 8.452153 8.904246
C -0.418308 9.684637 8.664202
C 0.245643 7.412427 8.181569
C 0.870330 6.238355 8.389976
C 4.119495 4.914359 9.043613
H 8.475618 7.278080 -2.177164
C 4.757606 6.078696 8.383625
H 10.313206 5.418646 -2.380417
C 6.001443 5.628927 8.175151
H 12.000342 3.232106 -2.219435
C 6.141898 4.293250 8.575531
H 12.323333 1.277266 -3.591585
C 7.308637 3.590364 8.500495
C 7.494097 2.301415 8.878517
C 8.680577 1.540118 8.755490
C 8.510010 0.274534 9.176630
C 7.088743 0.218070 9.646088
C 6.505389 -0.940426 10.157196
C 7.198609 -2.182645 10.130015
C 7.511570 -2.780390 8.915980
C 8.158634 -3.991457 8.816972
C 8.613083 -4.670978 9.981506
C 9.334174 -5.981344 9.872257
C 8.374548 -4.084915 11.198169
C 7.650735 -2.852431 11.237875
C 4.212116 9.729419 0.109463
C 4.769738 9.680743 2.972462
C 4.975496 8.436576 3.566349
C 6.238866 8.099736 4.046761
C 7.277195 9.014851 3.954051
H 9.499180 1.882799 8.415589
C -1.699454 11.906223 -0.893986
C -1.830467 12.114558 -2.329227
C -0.645088 11.771877 -2.858070
C 0.242021 11.324055 -1.757738
C 1.545338 10.868444 -1.943520
C 2.391715 10.461511 -0.937177
C 3.727704 9.933859 -1.157505
C 3.252731 10.066259 1.082957
C 3.364339 10.093518 2.476436
C 7.073295 10.251229 3.377294
C 5.817670 10.588069 2.881486
C 2.385028 10.278488 3.357431
C 2.500736 10.280435 4.835927
I -0.703427 1.564262 2.926484
C 1.351982 10.558863 5.363390
I 3.121207 -1.302188 0.148589
I 2.257978 2.515786 0.528594
C 0.427828 10.837292 4.268257
C -0.869151 11.201390 4.416488
I 0.182210 -2.244562 2.547722
N -6.961216 -2.595420 4.864467
C -1.769127 11.573277 3.355426
C -3.101344 11.947111 3.598129
N -8.257504 -5.521840 4.853425
C -3.609226 12.128187 2.402310
N -9.012710 -2.315045 7.230644
C -2.599865 11.947111 1.437062
N -7.173942 -4.585308 7.330855
C -2.725233 12.091193 0.042496
N 4.024470 1.156549 7.692896
C -4.067360 12.490339 -0.503270
N 4.336133 0.142135 10.623610
C -4.637047 13.742293 -0.208995
N 2.732517 2.546744 10.290776
C -5.891272 14.121968 -0.781965
N 4.969576 3.866845 9.124720
C -6.566665 13.292524 -1.620253
N 6.538954 1.427189 9.451144
N -0.464680 8.734475 1.036117
C -5.993798 12.067828 -1.917779
C -4.778069 11.662842 -1.372579
H 7.791100 10.870391 3.315559
O -2.994155 -1.035832 2.419919
O -3.979645 0.887856 3.002859
O 2.426975 0.329052 3.133341
O 3.395111 -1.635524 3.580100
O -0.801578 3.888263 0.359919
C 8.659989 8.664382 4.402214
O -2.550938 4.225103 1.686460
C 8.248718 6.906194 -3.022764
C 8.876284 5.825580 -3.661260
C 9.913211 5.066229 -3.168332
C 10.478183 3.874634 -3.612980
C 11.523463 3.031560 -3.015345
C 11.694782 1.972364 -3.748603