197
Dy1 H60 C116 N12 Cl4 O4
C 2.273622 -1.908250 1.214499
H -5.051377 -0.081350 -2.700555
H -4.380538 -2.461434 -2.816151
Cl -4.593439 -8.118780 -3.208569
H -3.812133 -4.100065 -0.931632
O -4.266054 -4.144227 1.734681
C 0.630669 4.160497 1.371162
O -5.876871 -0.929720 2.289846
H -4.886680 -6.122206 -1.263210
C 0.289224 5.485348 1.555203
H -2.319817 -6.865982 -4.267185
C 1.315568 6.361609 1.873092
H -1.363771 -4.813625 -3.962985
C 2.663271 5.945559 1.978041
C 2.944461 4.583520 1.774227
C 1.948245 3.718880 1.435044
C 1.930169 2.268517 1.123239
C 2.964546 0.169674 1.196247
H -1.110700 -7.256465 2.020629
H -3.340135 -6.549877 2.175771
N -0.544303 1.957061 -1.865526
N -1.906066 0.622912 0.858585
H -3.761920 -4.913570 4.279314
H -5.352652 -4.941462 5.969145
N -1.498341 3.012293 1.214499
C 5.091548 4.158173 2.857179
H -7.539909 -4.495196 6.904560
Cl -8.042034 4.867084 -3.076242
C 4.633610 4.620708 4.134819
H -9.801480 -3.802555 6.481722
H -0.124527 5.136703 -1.940055
C 5.589656 4.597465 5.138679
H -10.353817 -2.889105 4.513548
H -2.510625 4.492872 -1.949181
C 6.863045 4.104714 4.994184
H -8.823340 -2.814727 2.724852
C 7.792980 4.174443 6.068010
H -6.483438 -0.058107 -0.149838
C 9.160769 3.728177 5.814003
H -7.349101 -1.201663 -1.813812
C 9.492171 3.219156 4.636749
H -8.074170 -3.432991 -2.831361
C 8.560227 3.165697 3.544671
H -8.483904 -5.592266 -2.592564
H -3.717733 3.226128 -4.052724
C 7.250685 3.637530 3.716544
H -8.005881 -6.693984 -0.609180
H -5.718199 4.232550 -4.642872
C 6.302673 3.584071 2.630550
H -7.162311 -5.536483 1.171911
H -7.043809 3.395802 -0.945321
C 6.615999 2.975104 1.383330
H -5.149794 2.131383 -0.583323
C 6.350877 1.601443 1.191684
H -0.590499 5.775886 1.471548
C 6.646127 0.969233 -0.046410
C 7.134192 1.647929 -1.025934
C -4.215841 -0.436968 -2.499783
C 7.361153 3.056455 -0.955968
C -3.848286 -1.747874 -2.548455
H -6.945393 1.243501 3.124875
C 7.891397 3.842068 -2.016105
C -2.494557 -1.822251 -2.111928
H -6.184171 3.372559 3.007758
C 8.124383 5.115784 -1.879215
C -1.709233 -2.998347 -2.084550
H -4.059178 3.879257 2.225964
C 7.847210 5.780534 -0.682188
C -0.293241 -3.070400 -1.976559
C 7.347093 5.090217 0.376428
C 7.104065 3.704934 0.279084
C -2.430285 -4.262766 -2.343120
C -3.514875 -4.660221 -1.611519
C -4.195756 -5.850263 -1.822938
C -3.771963 -6.661444 -2.975856
C -2.677330 -6.291880 -3.629886
C -2.052687 -5.083244 -3.400215
C -3.044886 0.285889 -2.072382
N 0.544304 -1.957061 -1.865526
C -0.630669 -4.160497 1.371162
N 1.906067 -0.622912 0.858585
C -0.289224 -5.485348 1.555203
C -1.315567 -6.361609 1.873092
C -0.463963 4.272063 -1.953744
C -2.663271 -5.945559 1.978041
C -1.781539 3.916446 -1.955265
N 1.498341 -3.012293 1.214499
C -2.944461 -4.583520 1.774227
C -1.831752 2.500947 -1.968954
Cl 8.042034 -4.867084 -3.076242
C -1.948245 -3.718880 1.435044
C -3.012750 1.729279 -2.072382
H 0.124527 -5.136703 -1.940055
C -1.930168 -2.268517 1.123239
H 2.510625 -4.492872 -1.949181
C -2.964546 -0.169674 1.196247
H 3.717734 -3.226128 -4.052724
H 5.718200 -4.232550 -4.642872
C -4.262037 2.456785 -2.300532
H 7.043810 -3.395802 -0.945321
C -4.432759 3.184291 -3.459534
H 5.149794 -2.131383 -0.583323
C -5.583630 3.856014 -3.803280
C -5.091547 -4.158173 2.857179
C -6.601939 3.925743 -2.706639
H 0.590499 -5.775885 1.471548
C -4.633609 -4.620708 4.134819
C -6.407115 3.333046 -1.619124
C -5.589655 -4.597465 5.138679
C -5.242185 2.573000 -1.395537
C -6.863044 -4.104714 4.994184
C -0.144612 2.965807 1.077609
H 6.945393 -1.243500 3.124875
N 2.008500 0.555508 -1.832064
C -7.792980 -4.174443 6.068010
H 6.184172 -3.372559 3.007758
C -9.160768 -3.728177 5.814003
H 4.059179 -3.879257 2.225964
N 3.020784 1.508471 1.264692
C -9.492171 -3.219155 4.636749
N 0.620627 1.885007 0.914862
C -8.560227 -3.165697 3.544671
Dy 0.000000 0.000000 -0.558531
H 5.051378 0.081351 -2.700555
C -7.250685 -3.637529 3.716544
H 4.380539 2.461434 -2.816151
C -6.302673 -3.584071 2.630550
Cl 4.593440 8.118780 -3.208569
C -6.615999 -2.975104 1.383330
C -6.350877 -1.601443 1.191684
O 4.266054 4.144227 1.734681
H 3.812133 4.100065 -0.931632
C -6.646126 -0.969233 -0.046410
C -4.109391 0.611291 1.696656
O 5.876871 0.929720 2.289846
H 4.886681 6.122206 -1.263210
C -7.134192 -1.647929 -1.025934
C -5.350644 0.330051 2.159040
H 2.319818 6.865982 -4.267185
C -7.361152 -3.056454 -0.955968
C -6.121908 1.415499 2.730936
H 1.363772 4.813625 -3.962985
C -7.891396 -3.842068 -2.016105
C -5.641876 2.686891 2.692911
C -8.124382 -5.115784 -1.879215
C -4.388572 3.009969 2.210754
C -7.847209 -5.780534 -0.682188
C -3.669529 1.971006 1.711866
C -7.347093 -5.090217 0.376428
C -2.273622 1.908250 1.214499
C -7.104064 -3.704934 0.279084
C 3.044886 -0.285889 -2.072382
H 1.110701 7.256465 2.020629
H 3.340136 6.549877 2.175771
H 3.761921 4.913570 4.279314
C 0.463964 -4.272063 -1.953744
H 5.352653 4.941462 5.969145
C 1.781540 -3.916445 -1.955265
H 7.539909 4.495196 6.904560
C 1.831752 -2.500947 -1.968954
H 9.801480 3.802555 6.481722
C 3.012750 -1.729279 -2.072382
H 10.353818 2.889105 4.513548
H 8.823341 2.814727 2.724852
H 6.483438 0.058108 -0.149838
H 7.349102 1.201663 -1.813812
H 8.074170 3.432991 -2.831361
H 8.483904 5.592266 -2.592564
H 8.005881 6.693984 -0.609180
C 4.262037 -2.456785 -2.300532
H 7.162311 5.536483 1.171911
C 4.432760 -3.184291 -3.459534
C 5.583630 -3.856014 -3.803280
C 6.601940 -3.925743 -2.706639
C 6.407115 -3.333046 -1.619124
C 4.215842 0.436968 -2.499783
C 5.242185 -2.573000 -1.395537
C 3.848286 1.747874 -2.548455
C 0.144612 -2.965807 1.077609
C 2.494557 1.822251 -2.111928
C 1.709234 2.998347 -2.084550
C 0.293241 3.070400 -1.976559
C 2.430285 4.262766 -2.343120
C 3.514875 4.660222 -1.611519
C 4.109391 -0.611291 1.696656
C 4.195757 5.850263 -1.822938
C 5.350644 -0.330051 2.159040
C 3.771963 6.661444 -2.975856
C 6.121908 -1.415499 2.730936
C 2.677331 6.291880 -3.629886
N -2.008500 -0.555508 -1.832064
C 5.641877 -2.686891 2.692911
C 2.052687 5.083244 -3.400215
C 4.388573 -3.009968 2.210754
N -3.020784 -1.508471 1.264692
C 3.669530 -1.971006 1.711866
N -0.620626 -1.885007 0.914862