66
Zn1 H26 C34 N4 O1
Zn 0.005530 -0.075440 -0.410850
C -0.977304 2.821774 -0.753308
C -0.490655 4.182763 -1.189337
C 0.808524 4.036734 -1.352103
C 1.244913 2.718580 -1.013448
C 2.499424 2.175352 -0.978083
C 2.878977 0.933133 -0.598723
H 0.447997 -0.320768 -2.992280
C 4.262371 0.450264 -0.572445
C 4.244607 -0.830896 -0.160619
N 0.070455 1.984541 -0.726843
C 2.866746 -1.191101 0.089616
H 0.002029 -1.535729 -2.572396
N 2.059269 -0.094910 -0.196015
H -1.005497 4.969372 -1.317427
N -1.994578 0.202989 0.103326
N -0.030942 -1.925139 0.486140
C 2.392507 -2.425532 0.489731
C 3.359603 -3.533404 0.732323
H 3.200803 2.749733 -1.261210
H 5.033211 0.952604 -0.803759
H 5.000812 -1.395541 -0.054430
H 1.385692 4.725990 -1.660181
C 4.395491 -3.436052 1.622160
H 4.533546 -2.610502 2.071061
C 5.248901 -4.489407 1.895083
C 4.074517 -5.791985 0.286079
C 5.093366 -5.704367 1.238530
C 3.246357 -4.730841 0.013749
H 5.383147 -7.544331 2.094126
H 5.943630 -4.382319 2.532755
C 1.035250 -2.758478 0.744389
C 5.930336 -6.899857 1.599193
C 0.548622 -3.973438 1.287417
H 3.953039 -6.605852 -0.189032
C -0.769461 -3.878032 1.381159
H 2.587723 -4.810670 -0.665482
C -1.137468 -2.594925 0.911301
H 1.074468 -4.725000 1.541883
C -2.422887 -2.092586 0.894257
H -1.360954 -4.547818 1.704717
O -0.014735 -0.702391 -2.395316
C -2.830011 -0.848420 0.533579
C -4.163757 -0.338292 0.641689
H -3.107076 -2.690331 1.166620
C -4.118193 0.915610 0.288707
H -4.933433 -0.821161 0.920619
C -2.762945 1.289444 -0.021911
H -4.868432 1.495831 0.240765
C -2.302873 2.558922 -0.415954
H -3.574198 3.594753 1.690893
C -3.343782 3.643430 -0.333256
H -5.357529 5.218595 1.660480
C -3.868833 3.993899 0.880155
C -4.904097 5.014154 0.851632
H -3.328229 4.081516 -2.330179
H -7.016997 6.453026 0.567488
C -4.711977 5.345153 -1.440538
H -6.889858 6.772342 -0.995745
C -3.723804 4.311268 -1.497331
H -6.025181 7.603733 0.063762
H -4.980969 5.791028 -2.232973
C -5.253139 5.681993 -0.267700
C -6.401939 6.723666 -0.146773
H 6.685423 -6.615588 2.156905
H 6.270740 -7.320420 0.781837