53
H36 C16 N1
C -3.371589 2.238887 -1.250557
C -2.300773 1.240050 0.617634
C 1.317100 0.285994 -0.482213
C 1.278847 0.332724 -2.017520
H -0.402629 2.024712 0.376937
H -0.989621 1.417232 -0.972297
C 2.635339 0.733816 -2.604209
H -2.811888 0.476805 0.247926
C 2.613812 0.759128 -4.118216
C -0.708696 -1.156771 -0.432930
H -2.225124 1.109597 1.595583
C 0.018125 -2.474925 -0.398210
H -2.487128 3.303925 0.495745
C -0.565979 -3.467922 -1.372375
H -3.876041 2.567939 0.892176
C -0.117451 -4.926264 -1.200581
H -3.677100 1.319879 -1.372755
H -2.550148 2.382969 -1.770359
H -4.060869 2.863891 -1.548628
H 1.963541 -0.411050 -0.204199
H 1.655984 1.154380 -0.147794
H 1.020584 -0.557079 -2.365433
H 0.590810 0.984986 -2.307399
H 2.886400 1.629460 -2.266819
H 3.324926 0.091289 -2.300584
H 3.474390 1.088180 -4.451414
H 1.897110 1.352979 -4.426044
H 2.458010 -0.146251 -4.459997
H -0.906391 -0.936754 -1.378427
H -1.576755 -1.267753 0.031920
H -0.030179 -2.848759 0.518269
H 0.972235 -2.326950 -0.614951
H -0.333127 -3.177811 -2.288116
H -1.553134 -3.436769 -1.294362
H -0.536115 -5.305939 -0.400770
H 0.858551 -4.959364 -1.105288
H -0.386504 -5.446127 -1.987728
N -0.001425 0.001725 0.174525
C 1.184618 1.596360 4.847446
H 0.327252 2.065600 4.928898
H 1.867649 2.223311 4.529136
H 1.447737 1.240050 5.721316
H 0.919531 -0.977642 1.733058
C 0.228636 -0.272810 1.652790
C 0.662750 0.918786 2.498302
H -0.609022 -0.633014 2.034564
H 1.434977 1.366608 2.067138
C 1.044972 0.469017 3.867008
H -0.078029 1.572996 2.555981
C -0.892059 1.251732 -0.000627
H 1.905046 -0.019693 3.817039
H 0.358997 -0.161828 4.200495
C -3.048978 2.501740 0.351619