10
H4 C2 Cl4
Cl -1.345219 0.459393 -1.299117
Cl 1.345219 -0.459393 -1.299117
C -0.000000 -0.000000 -0.292958
H 0.253387 0.743682 0.274774
H -0.253387 -0.743682 0.274774
Cl -0.459393 -1.345219 1.299117
Cl 0.459393 1.345219 1.299117
C -0.000000 -0.000000 0.292958
H -0.743682 0.253387 -0.274774
H 0.743682 -0.253387 -0.274774