320
Zn4 P4 H132 C152 N16 O12
Zn -1.217555 -5.540764 -0.279622
Zn 1.217555 5.540764 -0.279622
P 4.037223 1.219459 -1.416096
P -4.037223 -1.219459 -1.416096
H 2.070859 -4.757265 -1.318002
H -2.070859 4.757265 -1.318002
H 3.505019 -4.357477 -3.282913
H -3.505019 4.357477 -3.282913
H 3.944997 -1.516656 -4.783803
H -3.944997 1.516656 -4.783803
H 3.670011 -2.072974 -7.020778
H -3.670011 2.072974 -7.020778
H 4.907450 -4.928602 -8.583638
H -4.907450 4.928602 -8.583638
H 5.654143 -3.593861 -9.055217
H -5.654143 3.593861 -9.055217
H 4.063453 -3.600207 -8.872329
H -4.063453 3.600207 -8.872329
H 6.525639 -4.848222 -6.664071
H -6.525639 4.848222 -6.664071
H 6.840816 -4.289788 -4.422561
H -6.840816 4.289788 -4.422561
H 7.803268 -1.465889 -4.357568
H -7.803268 1.465889 -4.357568
H 9.406650 -0.181914 -2.967016
H -9.406650 0.181914 -2.967016
H 9.476454 0.549973 -0.430769
H -9.476454 -0.549973 -0.430769
H 1.324165 -9.662599 -2.084317
H -1.324165 9.662599 -2.084317
H 1.080908 -8.203056 -4.070389
H -1.080908 8.203056 -4.070389
H 1.398200 -4.359592 -4.934950
H -1.398200 4.359592 -4.934950
H 2.081436 -4.393437 -7.143207
H -2.081436 4.393437 -7.143207
H 0.490745 -6.132197 -9.768631
H -0.490745 6.132197 -9.768631
H 1.594921 -5.015329 -9.466337
H -1.594921 5.015329 -9.466337
H 1.971441 -6.563714 -9.339373
H -1.971441 6.563714 -9.339373
H -0.541512 -7.344252 -7.886850
H 0.541512 7.344252 -7.886850
H -1.186672 -7.356944 -5.671035
H 1.186672 7.356944 -5.671035
H -1.406661 -3.612898 -5.061913
H 1.406661 3.612898 -5.061913
H -2.857743 -2.089897 -3.778675
H 2.857743 2.089897 -3.778675
H 6.170272 2.618717 -1.225802
H -6.170272 -2.618717 -1.225802
H 7.062920 1.852985 -2.306503
H -7.062920 -1.852985 -2.306503
H 7.067150 4.059222 -2.601240
H -7.067150 -4.059222 -2.601240
H 5.482806 4.027493 -2.832495
H -5.482806 -4.027493 -2.832495
H 6.457950 3.289260 -3.864829
H -6.457950 -3.289260 -3.864829
H 1.307243 0.391327 -1.361834
H -1.307243 -0.391327 -1.361834
H 2.218929 -0.839766 -0.878164
H -2.218929 0.839766 -0.878164
H 0.621892 -1.766259 -2.297434
H -0.621892 1.766259 -2.297434
H 1.984133 -1.759913 -3.136300
H -1.984133 1.759913 -3.136300
H 0.873611 -0.638815 -3.405342
H -0.873611 0.638815 -3.405342
C 3.167420 2.740345 -1.012685
C -3.167420 -2.740345 -1.012685
C 3.281857 -3.294126 -0.299271
C -3.281857 3.294126 -0.299271
C 2.802746 -4.152506 -1.366369
C -2.802746 4.152506 -1.366369
C 3.583707 -3.935901 -2.436490
C -3.583707 3.935901 -2.436490
C 4.565197 -2.947220 -2.067691
C -4.565197 2.947220 -2.067691
C 5.554937 -2.480589 -2.926206
C -5.554937 2.480589 -2.926206
C 5.419559 -2.847167 -4.375706
C -5.419559 2.847167 -4.375706
C 4.482490 -2.200949 -5.164693
C -4.482490 2.200949 -5.164693
C 4.315383 -2.533894 -6.496298
C -4.315383 2.533894 -6.496298
C 5.077730 -3.527229 -7.067634
C -5.077730 3.527229 -7.067634
C 4.910834 -3.949228 -8.524691
C -4.910834 3.949228 -8.524691
C 5.996184 -4.159275 -6.281669
C -5.996184 4.159275 -6.281669
C 6.186982 -3.834368 -4.939484
C -6.186982 3.834368 -4.939484
C 6.663978 -1.699204 -2.551361
C -6.663978 1.699204 -2.551361
C 7.727964 -1.283340 -3.428014
C -7.727964 1.283340 -3.428014
C 8.599036 -0.583183 -2.667745
C -8.599036 0.583183 -2.667745
C 8.084600 -0.554203 -1.334628
C -8.084600 0.554203 -1.334628
C 8.659533 0.096457 -0.256950
C -8.659533 -0.096457 -0.256950
C 0.165626 -8.188460 -1.044426
C -0.165626 8.188460 -1.044426
C 0.860919 -8.833621 -2.123615
C -0.860919 8.833621 -2.123615
C 0.729137 -8.038699 -3.202805
C -0.729137 8.038699 -3.202805
C -0.045902 -6.890948 -2.799242
C 0.045902 6.890948 -2.799242
C -0.405499 -5.807501 -3.619971
C 0.405499 5.807501 -3.619971
C 0.045902 -5.840711 -5.060402
C -0.045902 5.840711 -5.060402
C 1.002008 -4.983600 -5.533492
C -1.002008 4.983600 -5.533492
C 1.408142 -4.997984 -6.853005
C -1.408142 4.997984 -6.853005
C 0.845900 -5.881325 -7.753841
C -0.845900 5.881325 -7.753841
C 1.262822 -5.899516 -9.210898
C -1.262822 5.899516 -9.210898
C -0.130513 -6.738647 -7.282262
C 0.130513 6.738647 -7.282262
C -0.525224 -6.742032 -5.965772
C 0.525224 6.742032 -5.965772
C -1.164250 -4.709882 -3.239231
C 1.164250 4.709882 -3.239231
C -1.620516 -3.685875 -4.139916
C 1.620516 3.685875 -4.139916
C -2.402958 -2.851820 -3.438594
C 2.402958 2.851820 -3.438594
C -2.427284 -3.328605 -2.063157
C 2.427284 3.328605 -2.063157
C 6.231615 2.375459 -2.182563
C -6.231615 -2.375459 -2.182563
C 6.316226 3.517711 -2.921672
C -6.316226 -3.517711 -2.921672
C 1.944788 -0.302485 -1.662617
C -1.944788 0.302485 -1.662617
C 1.298782 -1.197248 -2.720646
C -1.298782 1.197248 -2.720646
N 4.375668 -2.585930 -0.746817
N -4.375668 2.585930 -0.746817
N 6.907235 -1.253726 -1.282180
N -6.907235 1.253726 -1.282180
N -0.374616 -7.005384 -1.483659
N 0.374616 7.005384 -1.483659
N -1.681013 -4.460068 -1.972166
N 1.681013 4.460068 -1.972166
O 4.556525 0.534743 -0.224756
O -4.556525 -0.534743 -0.224756
O 5.099940 1.533155 -2.521737
O -5.099940 -1.533155 -2.521737
O 3.098251 0.307985 -2.281564
O -3.098251 -0.307985 -2.281564
Zn 5.540764 -1.217555 0.279622
Zn -5.540764 1.217555 0.279622
P 1.219459 -4.037223 1.416096
P -1.219459 4.037223 1.416096
H -4.757265 -2.070859 1.318002
H 4.757265 2.070859 1.318002
H -4.357477 -3.505019 3.282913
H 4.357477 3.505019 3.282913
H -1.516656 -3.944997 4.783803
H 1.516656 3.944997 4.783803
H -2.072974 -3.670011 7.020778
H 2.072974 3.670011 7.020778
H -4.928602 -4.907450 8.583638
H 4.928602 4.907450 8.583638
H -3.593861 -5.654143 9.055217
H 3.593861 5.654143 9.055217
H -3.600207 -4.063453 8.872329
H 3.600207 4.063453 8.872329
H -4.848222 -6.525639 6.664071
H 4.848222 6.525639 6.664071
H -4.289788 -6.840816 4.422561
H 4.289788 6.840816 4.422561
H -1.465889 -7.803268 4.357568
H 1.465889 7.803268 4.357568
H -0.181914 -9.406650 2.967016
H 0.181914 9.406650 2.967016
H 0.549973 -9.476454 0.430769
H -0.549973 9.476454 0.430769
H 9.662599 1.324165 2.084317
H -9.662599 -1.324165 2.084317
H 8.203056 1.080908 4.070389
H -8.203056 -1.080908 4.070389
H 4.359592 1.398200 4.934950
H -4.359592 -1.398200 4.934950
H 4.393437 2.081436 7.143207
H -4.393437 -2.081436 7.143207
H 6.132197 0.490745 9.768631
H -6.132197 -0.490745 9.768631
H 5.015329 1.594921 9.466337
H -5.015329 -1.594921 9.466337
H 6.563714 1.971441 9.339373
H -6.563714 -1.971441 9.339373
H 7.344252 -0.541512 7.886850
H -7.344252 0.541512 7.886850
H 7.356944 -1.186672 5.671035
H -7.356944 1.186672 5.671035
H 3.612898 -1.406661 5.061913
H -3.612898 1.406661 5.061913
H 2.089897 -2.857743 3.778675
H -2.089897 2.857743 3.778675
H 2.618717 -6.170272 1.225802
H -2.618717 6.170272 1.225802
H 1.852985 -7.062920 2.306503
H -1.852985 7.062920 2.306503
H 4.059222 -7.067150 2.601240
H -4.059222 7.067150 2.601240
H 4.027493 -5.482806 2.832495
H -4.027493 5.482806 2.832495
H 3.289260 -6.457950 3.864829
H -3.289260 6.457950 3.864829
H 0.391327 -1.307243 1.361834
H -0.391327 1.307243 1.361834
H -0.839766 -2.218929 0.878164
H 0.839766 2.218929 0.878164
H -1.766259 -0.621892 2.297434
H 1.766259 0.621892 2.297434
H -1.759913 -1.984133 3.136300
H 1.759913 1.984133 3.136300
H -0.638815 -0.873611 3.405342
H 0.638815 0.873611 3.405342
C 2.740345 -3.167420 1.012685
C -2.740345 3.167420 1.012685
C -3.294126 -3.281857 0.299271
C 3.294126 3.281857 0.299271
C -4.152506 -2.802746 1.366369
C 4.152506 2.802746 1.366369
C -3.935901 -3.583707 2.436490
C 3.935901 3.583707 2.436490
C -2.947220 -4.565197 2.067691
C 2.947220 4.565197 2.067691
C -2.480589 -5.554937 2.926206
C 2.480589 5.554937 2.926206
C -2.847167 -5.419559 4.375706
C 2.847167 5.419559 4.375706
C -2.200949 -4.482490 5.164693
C 2.200949 4.482490 5.164693
C -2.533894 -4.315383 6.496298
C 2.533894 4.315383 6.496298
C -3.527229 -5.077730 7.067634
C 3.527229 5.077730 7.067634
C -3.949228 -4.910834 8.524691
C 3.949228 4.910834 8.524691
C -4.159275 -5.996184 6.281669
C 4.159275 5.996184 6.281669
C -3.834368 -6.186982 4.939484
C 3.834368 6.186982 4.939484
C -1.699204 -6.663978 2.551361
C 1.699204 6.663978 2.551361
C -1.283340 -7.727964 3.428014
C 1.283340 7.727964 3.428014
C -0.583183 -8.599036 2.667745
C 0.583183 8.599036 2.667745
C -0.554203 -8.084600 1.334628
C 0.554203 8.084600 1.334628
C 0.096457 -8.659533 0.256950
C -0.096457 8.659533 0.256950
C 8.188460 0.165626 1.044426
C -8.188460 -0.165626 1.044426
C 8.833621 0.860919 2.123615
C -8.833621 -0.860919 2.123615
C 8.038699 0.729137 3.202805
C -8.038699 -0.729137 3.202805
C 6.890948 -0.045902 2.799242
C -6.890948 0.045902 2.799242
C 5.807501 -0.405499 3.619971
C -5.807501 0.405499 3.619971
C 5.840711 0.045902 5.060402
C -5.840711 -0.045902 5.060402
C 4.983600 1.002008 5.533492
C -4.983600 -1.002008 5.533492
C 4.997984 1.408142 6.853005
C -4.997984 -1.408142 6.853005
C 5.881325 0.845900 7.753841
C -5.881325 -0.845900 7.753841
C 5.899516 1.262822 9.210898
C -5.899516 -1.262822 9.210898
C 6.738647 -0.130513 7.282262
C -6.738647 0.130513 7.282262
C 6.742032 -0.525224 5.965772
C -6.742032 0.525224 5.965772
C 4.709882 -1.164250 3.239231
C -4.709882 1.164250 3.239231
C 3.685875 -1.620516 4.139916
C -3.685875 1.620516 4.139916
C 2.851820 -2.402958 3.438594
C -2.851820 2.402958 3.438594
C 3.328605 -2.427284 2.063157
C -3.328605 2.427284 2.063157
C 2.375459 -6.231615 2.182563
C -2.375459 6.231615 2.182563
C 3.517711 -6.316226 2.921672
C -3.517711 6.316226 2.921672
C -0.302485 -1.944788 1.662617
C 0.302485 1.944788 1.662617
C -1.197248 -1.298782 2.720646
C 1.197248 1.298782 2.720646
N -2.585930 -4.375668 0.746817
N 2.585930 4.375668 0.746817
N -1.253726 -6.907235 1.282180
N 1.253726 6.907235 1.282180
N 7.005384 -0.374616 1.483659
N -7.005384 0.374616 1.483659
N 4.460068 -1.681013 1.972166
N -4.460068 1.681013 1.972166
O 0.534743 -4.556525 0.224756
O -0.534743 4.556525 0.224756
O 1.533155 -5.099940 2.521737
O -1.533155 5.099940 2.521737
O 0.307985 -3.098251 2.281564
O -0.307985 3.098251 2.281564