84
H29 Ru1 C43 N6 Cl4 O1
H -0.918726 -1.991411 2.268006
H 0.040597 -4.225427 1.924658
H -0.740953 2.108406 4.223968
H 3.450665 2.886474 -5.137002
C -3.099469 1.494279 2.224938
H 3.351739 4.817330 -6.431486
H 1.314793 5.856922 -6.825834
H -0.656100 4.985174 -5.909340
H -0.572837 3.024392 -4.647077
H 1.944828 -2.653679 -2.373956
H 1.043651 -0.469105 -2.126442
H 3.341619 -6.363161 -1.764516
H -2.878662 0.426063 0.501546
H 4.216173 -5.577287 -3.927044
H 3.706899 -1.234161 -6.896512
H 2.703421 1.024577 -6.568011
H 1.200837 -8.969296 0.431842
H 1.049224 -7.067064 -0.913711
C 1.497290 1.451343 -4.015518
C 0.928380 1.430525 -2.730189
C 0.384895 2.582013 -2.046537
C -0.100648 2.156548 -0.860395
N -4.411830 4.095211 3.318330
N -2.481895 1.999113 3.306676
Cl -5.231209 1.595376 4.928838
Cl -4.583147 4.600824 6.261062
Cl -2.321931 2.188035 6.405820
C -0.361072 -2.255537 1.546243
O -4.768211 4.579226 2.596674
C -1.175196 1.772718 3.448911
H 0.507658 0.923090 2.666565
H 2.595688 -4.836951 2.093347
C 1.441575 2.723834 -4.784024
H 2.759311 -6.757399 3.426820
C 2.610563 3.296325 -5.306057
H 2.006816 -8.800151 2.601772
C 2.555355 4.450415 -6.068067
C 1.346996 5.068445 -6.297148
C 0.172932 4.547999 -5.762094
C 0.228474 3.382199 -5.011905
H 2.683603 -4.319107 -6.878566
H 3.927360 -5.346989 -8.522414
H 6.236048 -5.276729 -8.475473
H 7.310116 -4.159070 -6.723103
H 6.024829 -3.185835 -5.025961
C -2.410108 0.779967 1.247631
Cl -1.778615 4.847646 4.499273
C 0.072628 -1.422823 0.462323
C 0.161289 -3.472081 1.357934
C 1.480552 -8.126173 0.769685
C 0.943667 -3.444757 0.141557
C 1.700720 -4.505167 -0.382012
C 2.369083 -4.471338 -1.618883
C 3.173485 -5.517435 -2.165444
C 3.646386 -5.089368 -3.343861
C 3.138029 -3.759627 -3.573834
C 3.411690 -3.006281 -4.705589
C 2.985365 -1.694756 -4.932492
C 3.242928 -0.931001 -6.125083
C 2.699035 0.310264 -5.942731
C 2.117446 0.331082 -4.626196
C 0.142830 0.734428 -0.787120
C -0.226049 -0.067060 0.287471
C -1.035356 0.584799 1.363708
C -0.418699 1.071417 2.518976
C 1.815758 -5.742528 0.442655
C 2.313310 -5.674870 1.745970
C 2.402259 -6.815949 2.547605
C 1.968199 -8.025987 2.051082
C 1.396135 -6.992901 -0.033514
C 4.236759 -3.656839 -5.783696
C 3.632669 -4.294386 -6.831735
C 4.369825 -4.896803 -7.812910
C 5.729670 -4.859070 -7.789065
C 6.362115 -4.208512 -6.752772
C 5.590536 -3.620408 -5.749977
N 0.852626 -2.180072 -0.396182
N 2.367007 -3.417434 -2.488873
N 2.291336 -0.904979 -4.040589
N 0.777587 0.347996 -1.934509
H -4.035471 1.628294 2.123440
H 0.371624 3.474578 -2.373853
H -0.523508 2.692607 -0.200695
Ru -3.521050 3.240898 4.686763