14
H5 C6 N1 O2
N 0.347916 1.284094 0.944970
C -1.134386 0.137668 -0.607601
C -1.411103 -0.953849 -1.423423
C 0.935635 -0.895612 0.050031
C 0.029846 0.139332 0.104408
H -0.713665 -2.739211 -2.090790
O 1.420835 1.300733 1.514613
H 1.213541 -2.749194 -0.787739
O -0.505317 2.175943 1.074541
H -1.742178 0.866456 -0.546706
H -2.217990 -0.973815 -1.926232
H 1.746515 -0.863998 0.545506
C -0.527328 -2.010424 -1.512442
C 0.625867 -2.003768 -0.758667