10
H6 C2 S1 O1
H -1.811348 1.305589 -0.341367
O -0.571742 -1.355649 -0.042167
H -0.514882 2.134210 0.094838
H -1.196632 1.115905 1.124423
S 0.070468 -0.045829 -0.431967
H 1.087905 0.177466 1.638526
H 1.845718 1.075971 0.550219
H 2.095801 -0.504732 0.598621
C -0.982929 1.278967 0.181206
C 1.429983 0.204089 0.720599