53
H36 C16 N1
H -0.781278 1.533337 -0.867988
N -0.019485 -0.133393 0.094999
H -1.327472 -3.472057 -2.849372
H 1.549502 -1.245847 -0.687597
H 0.704829 -1.468338 1.486231
H 0.334901 -0.975215 -2.611668
H 1.307522 -0.001980 1.664251
H -0.725846 0.711031 2.682810
H 0.345345 0.621254 -2.462648
C 1.179329 -0.341571 -0.845542
H -1.322708 -0.770940 2.513299
C 0.873007 -0.202352 -2.306478
H 2.731403 -0.924472 -2.871476
C 2.173900 -0.137296 -3.093515
H 2.674946 0.675901 -2.833379
H -0.952948 3.798580 0.897904
C 1.916736 -0.109973 -4.567651
C -1.200014 -0.993431 -0.329851
H -0.401534 3.866238 -0.600399
H -0.509109 0.791701 5.165760
C -0.959979 -2.496220 -0.314064
H 1.584615 4.857688 0.143700
H -1.311866 1.390214 0.630442
C -2.161705 -3.116852 -2.477832
H -1.465734 -0.729304 -1.244803
H -0.125671 -2.703097 -0.802817
C -2.134378 -3.231350 -0.966160
H 0.716382 2.215122 1.458403
H 0.343098 5.719027 0.667397
H 1.304658 2.299694 -0.032811
H 1.104039 4.723673 1.662548
C -0.135516 3.742632 0.343031
H -2.980684 -2.868339 -0.603548
C 0.474103 -0.505512 1.487589
C 0.807524 4.858990 0.738659
C -0.490527 -0.249192 2.642179
H -2.087292 -4.188972 -0.718450
C 0.209409 -0.679862 3.944900
H 1.133639 -0.325958 3.949281
C -0.508072 -0.188040 5.159718
H 1.314929 0.631663 -4.780383
C -0.506630 1.321255 0.060758
C 0.477989 2.364750 0.508119
H 1.882364 0.314191 -0.607968
H -2.919494 -3.628191 -2.830726
H 0.260222 -1.667409 3.975401
H 2.765098 0.008429 -5.045935
H -1.431608 -0.515921 5.149084
H 1.504234 -0.955698 -4.843578
H -1.962320 -0.793059 0.269675
H -2.256822 -2.174844 -2.731640
H -0.854224 -2.804584 0.620020
H -0.055172 -0.518523 5.963170