97
Er1 C84 N12
N -0.261650 1.467093 2.186229
N -0.261650 -1.467093 2.186229
N -2.238798 1.467093 0.012455
N -2.238798 -1.467093 0.012455
C 0.759977 -7.670951 -2.667914
C 1.340902 -8.818531 -2.241020
C 2.153625 -8.877108 -1.135027
C 2.511338 -7.716215 -0.412255
Er -0.344267 0.000000 0.263569
C -0.914117 1.075690 -2.887366
C -0.914117 -1.075690 -2.887366
C -1.643851 0.724227 -4.129834
C -1.643851 -0.724227 -4.129834
C -2.170404 1.435141 -5.181237
C -2.170404 -1.435141 -5.181237
C -2.768499 0.710914 -6.249018
C -2.768499 -0.710914 -6.249018
C -3.418105 1.427154 -7.312431
C -3.418105 -1.427154 -7.312431
C 4.895134 1.451117 2.578185
C 4.895134 -1.451117 2.578185
C -4.056264 0.697601 -8.303785
C -4.056264 -0.697601 -8.303785
C 5.911037 0.708252 3.295498
C 5.911037 -0.708252 3.295498
C 0.187637 2.742478 -1.663458
C 0.187637 -2.742478 -1.663458
C 6.926941 1.397865 3.976781
C 6.926941 -1.397865 3.976781
C 0.654094 4.116380 -1.593583
C 0.654094 -4.116380 -1.593583
C 7.894195 0.734878 4.689726
C 7.894195 -0.734878 4.689726
C 0.396541 5.234672 -2.323997
C 0.396541 -5.234672 -2.323997
C 0.862998 0.000000 3.807552
C 0.468084 1.224796 3.329344
C 1.046147 6.459468 -1.923306
C 1.046147 -6.459468 -1.923306
C 0.468084 -1.224796 3.329344
C 0.754254 2.497519 3.982240
C 0.759977 7.670951 -2.667914
C 0.754254 -2.497519 3.982240
C 0.127541 3.474693 3.228898
C 1.340902 8.818531 -2.241020
C 0.127541 -3.474693 3.228898
C 2.153625 8.877108 -1.135027
C 2.511338 7.716215 -0.412255
C 1.896072 6.464793 -0.823864
C 1.896072 -6.464793 -0.823864
C 2.187965 5.279936 -0.051961
C 2.187965 -5.279936 -0.051961
C 1.549806 4.140343 -0.487589
C 1.549806 -4.140343 -0.487589
C 1.621349 2.750466 -0.013748
C 1.621349 -2.750466 -0.013748
C 2.780337 1.096991 1.154478
C 2.780337 -1.096991 1.154478
C 1.463955 2.681238 5.295675
C 1.463955 -2.681238 5.295675
C 3.916432 0.702926 1.962410
C 3.916432 -0.702926 1.962410
C 2.920561 2.896909 5.145007
C 2.920561 -2.896909 5.145007
C 0.055999 4.976399 3.495297
C 0.055999 -4.976399 3.495297
C -1.154500 5.383777 4.302137
C -1.154500 -5.383777 4.302137
C -0.516341 2.795730 2.155659
C -0.516341 -2.795730 2.155659
C -1.397745 3.413453 1.248373
C -1.397745 -3.413453 1.248373
C -2.261978 2.782417 0.353097
C -2.261978 -2.782417 0.353097
C -3.440998 3.424104 -0.232108
C -3.440998 -3.424104 -0.232108
C -4.084881 2.478881 -0.925401
C -4.084881 -2.478881 -0.925401
C -3.346562 1.243434 -0.729969
C -3.346562 -1.243434 -0.729969
C -3.781541 0.000000 -1.168872
C -3.850222 4.872558 0.021190
C -3.850222 -4.872558 0.021190
C -4.582817 5.026989 1.367379
C -4.582817 -5.026989 1.367379
C -5.429880 2.609348 -1.614327
C -5.429880 -2.609348 -1.614327
C -6.586007 2.172682 -0.664461
C -6.586007 -2.172682 -0.664461
N -0.533511 0.000000 -2.174420
N -0.622224 2.383027 -2.671189
N -0.622224 -2.383027 -2.671189
N 0.735653 1.991625 -0.717959
N 0.735653 -1.991625 -0.717959
N 2.522784 2.385690 0.885895
N 2.522784 -2.385690 0.885895
N 2.079221 0.000000 0.779991