169
Tm1 H72 C88 N8
H -1.110740 6.325887 4.399963
C 0.209195 2.754908 -1.723130
H -1.110740 -6.325887 4.399963
C 0.209195 -2.754908 -1.723130
C -0.598227 2.370874 -2.696612
C 0.695939 4.141696 -1.613750
H -1.127919 4.928431 5.109839
C 0.695939 -4.141696 -1.613750
H -1.127919 -4.928431 5.109839
C 0.839099 7.699340 -2.657235
C -0.598227 -2.370874 -2.696612
C 0.458294 5.267127 -2.355346
H -1.915299 5.136449 3.772121
C 0.458294 -5.267128 -2.355346
H -1.915299 -5.136449 3.772121
H -4.400557 1.165435 -9.052684
C 1.411739 8.870109 -2.251435
H -4.400557 -1.165435 -9.052684
C 1.082471 6.464566 -1.959391
C 1.082471 -6.464566 -1.959391
C 2.253520 8.872776 -1.164198
C 0.839099 -7.699340 -2.657235
C 2.531251 7.731343 -0.465260
C 1.411739 -8.870109 -2.251435
C 2.253520 -8.872776 -1.164198
C 2.531251 -7.731343 -0.465260
C 1.961474 6.501902 -0.833870
C 1.961474 -6.501902 -0.833870
C 2.222025 5.304464 -0.139307
C 2.222025 -5.304464 -0.139307
C 1.597847 4.157697 -0.531982
C 1.597847 -4.157697 -0.531982
C 1.660838 2.760241 -0.052897
C 1.660838 -2.760242 -0.052897
C 2.554156 2.373541 0.851675
C 2.554156 -2.373541 0.851675
C 2.786075 1.128099 1.150283
C 2.786075 -1.128099 1.150283
C 3.959987 0.714729 1.930162
C 3.959987 -0.714729 1.930162
Tm -0.301399 -0.000000 0.220662
H -2.041280 2.352206 -5.256104
H -2.041280 -2.352206 -5.256104
H -3.361215 2.330871 -7.397764
C -0.489425 2.789577 2.088763
H -3.361215 -2.330871 -7.397764
C -0.489425 -2.789577 2.088763
C -1.368428 3.410965 1.222474
C -1.368428 -3.410965 1.222474
H 0.277912 7.699340 -3.398831
H -0.976169 3.026931 -3.235855
C -2.224525 2.789577 0.315713
H -0.976169 -3.026932 -3.235855
C -2.224525 -2.789577 0.315713
H 1.234221 9.662179 -2.707550
C -3.392710 3.442968 -0.288064
H -0.100030 5.240458 -3.099130
C -3.392710 -3.442968 -0.288064
H -0.100030 -5.240459 -3.099130
H 2.645779 9.672846 -0.897311
C -4.056973 2.485551 -0.973877
C -4.056973 -2.485551 -0.973877
H 0.277912 -7.699340 -3.398831
H 3.106754 7.768680 0.265399
C -3.298225 1.245442 -0.790118
C -3.298225 -1.245442 -0.790118
H 1.234221 -9.662179 -2.707550
H 2.645779 -9.672846 -0.897311
H 3.106754 -7.768680 0.265399
H 2.814707 5.296463 0.578225
H 2.814707 -5.296463 0.578225
H 3.043763 3.029598 1.294664
H 3.043763 -3.029598 1.294664
C -3.810737 4.867092 -0.021177
C -3.810737 -4.867093 -0.021177
C -4.520811 5.064443 1.305602
C -4.520811 -5.064443 1.305602
C -5.399813 2.586893 -1.643282
C -5.399813 -2.586893 -1.643282
H -1.391333 4.341713 1.247631
H -1.391333 -4.341713 1.247631
C 4.933475 1.440126 2.558003
C -6.550820 2.197526 -0.741991
C 4.933475 -1.440126 2.558003
C -6.550820 -2.197526 -0.741991
C -3.750610 -0.000000 -1.235295
C 5.944185 0.714729 3.241628
C 5.944185 -0.714729 3.241628
N -0.581048 -0.000000 -2.229559
N 0.778972 1.965505 -0.744179
C 6.992116 1.405456 3.953692
N 0.778972 -1.965505 -0.744179
C 6.992116 -1.405456 3.953692
N 2.093181 -0.000000 0.707294
C 7.942699 0.696061 4.583721
C 7.942699 -0.696061 4.583721
N -2.183867 1.474796 -0.033209
N -2.183867 -1.474796 -0.033209
C 0.512695 1.229441 3.267880
C 0.512695 -1.229441 3.267880
N -0.228874 1.461461 2.129234
N -0.228874 -1.461461 2.129234
C 0.778972 2.504219 3.950411
C 0.778972 -2.504219 3.950411
C 0.177700 3.490972 3.201158
C 0.177700 -3.490972 3.201158
H -4.394830 5.160451 -0.736522
H -4.394830 -5.160452 -0.736522
H -3.020494 5.432475 -0.038678
H -3.020494 -5.432475 -0.038678
C 0.899227 -0.000000 3.756808
H -4.755593 5.989857 1.409513
H -4.755593 -5.989857 1.409513
C 1.540583 2.698903 5.249845
C 1.540583 -2.698903 5.249845
H -3.942445 4.797753 2.023135
H -3.942445 -4.797753 2.023135
C 2.906330 2.994929 5.059524
C 2.906330 -2.994929 5.059524
H -5.319644 4.528396 1.323103
H -5.319644 -4.528396 1.323103
C 0.103257 4.957767 3.471326
C 0.103257 -4.957767 3.471326
H -5.405540 2.013509 -2.425349
H -5.405540 -2.013510 -2.425349
C -1.125056 5.376470 4.261050
C -1.125056 -5.376470 4.261050
H -5.531521 3.498973 -1.945171
H 4.933475 2.370874 2.537221
H -5.531521 -3.498973 -1.945171
H 4.933475 -2.370874 2.537221
H -7.375421 2.280199 -1.224357
H 7.009295 2.333537 3.975568
H -7.375421 -2.280200 -1.224357
H 7.009295 -2.333538 3.975568
H -6.567999 2.776243 0.023669
H 8.621277 1.146767 5.032179
H -6.567999 -2.776243 0.023669
H 8.621277 -1.146767 5.032179
H -6.436292 1.288113 -0.453228
H -6.436292 -1.288113 -0.453228
H -4.412009 -0.000000 -1.887200
H 1.474730 -0.000000 4.487467
C -0.893137 1.117431 -2.948186
H 1.128283 3.421633 5.748618
C -0.893137 -1.117431 -2.948186
H 1.128283 -3.421633 5.748618
C -1.586031 0.701395 -4.187461
H 1.466140 1.890832 5.781432
C -1.586031 -0.701395 -4.187461
H 1.466140 -1.890832 5.781432
C -2.104270 1.424125 -5.240791
H 3.332947 3.098938 5.912688
C -2.104270 -1.424125 -5.240791
H 3.332947 -3.098938 5.912688
C -2.734174 0.725397 -6.296308
H 2.989363 3.811000 4.559657
C -2.734174 -0.725397 -6.296308
H 2.989363 -3.811000 4.559657
C -3.366941 1.400122 -7.372607
H 3.324357 2.280199 4.576064
C -3.366941 -1.400123 -7.372607
H 3.324357 -2.280200 4.576064
C -3.976803 0.706728 -8.363590
H 0.106120 5.432475 2.624725
C -3.976803 -0.706729 -8.363590
H 0.106120 -5.432475 2.624725
H 0.896363 5.227124 3.962443
H 0.896363 -5.227124 3.962443