133
Gd1 H40 C76 N12 Cl4
Gd -0.122514 -0.260421 0.167487
N 2.156933 -3.189378 1.174748
N 0.848243 -1.394162 2.157369
N -0.040336 -0.035876 3.935152
H -1.723800 -0.630482 -4.940073
H 0.500670 -1.726609 -4.994402
C 2.927639 -1.844391 -3.809384
Cl 5.191703 -3.802981 -7.198630
H 4.846849 -1.449253 -1.905598
C 3.441444 -3.124788 -3.706249
H 5.333452 -0.301834 0.245938
C 4.163792 -3.723194 -4.700983
C 4.360246 -3.054500 -5.881527
C 3.864576 -1.766503 -6.030453
C 3.199653 -1.181395 -4.964850
Cl 8.411442 2.169675 4.271435
C -1.856785 2.682594 0.392402
C -2.941818 3.436775 -0.208547
C -3.198720 2.893461 -1.392133
H 3.290325 -3.599713 -2.924503
C -2.301074 1.753641 -1.560599
H 4.514388 -4.576159 -4.575355
H 3.979427 -1.306776 -6.831186
C -2.222492 0.980463 -2.733088
C -1.185817 0.121799 -3.042009
H 2.930662 -0.294235 -5.046440
H 6.657253 0.007817 4.263954
H 4.686663 -0.474707 3.221772
N -1.494099 1.681453 -0.454968
C 3.275213 0.121799 0.362284
C 3.184541 0.951968 1.483690
C 2.060217 1.687152 1.919160
N 0.827087 1.681453 1.326238
C 2.023948 2.587609 3.040088
C 0.872423 3.153720 3.091438
C 0.104739 2.627503 1.965571
C -3.008310 -0.013080 2.062800
H -6.326881 -0.900240 -0.422211
C -3.482824 -1.054115 0.030794
C -1.185817 3.117626 1.570306
H -7.405870 -1.853889 -2.281011
C -3.253123 1.240722 -3.782056
C -4.480208 -1.557536 -0.954699
H -6.242255 -3.045001 -3.797655
C -5.852368 -1.382764 -1.057029
H -3.890845 -3.445838 -3.588083
C -2.944841 1.791635 -5.002778
C -6.490090 -1.965971 -2.168825
H -0.112873 -5.225857 -3.471471
C -3.924091 2.013900 -5.962981
H -3.380063 4.168160 0.168835
C -5.785876 -2.684058 -3.070382
H 1.561525 -6.815906 -3.658453
C -5.145132 1.645358 -5.780855
C -4.356291 -2.927220 -2.970895
H -3.836442 3.186015 -2.003735
C -5.519906 1.052652 -4.581781
H 3.293347 -6.912790 -2.129192
C -3.727636 -2.309817 -1.865162
C -4.576925 0.849384 -3.561587
H 3.290325 -5.491815 -0.249782
Cl -6.409997 1.939812 -6.953372
C -2.349432 -2.302218 -1.406899
H 4.112411 -3.675701 3.321292
C -0.270036 -3.312859 -1.355529
H 4.961700 -3.100092 5.420505
C 0.624588 -4.427983 -1.779623
H 3.946181 -1.555636 6.723778
Cl -3.647241 7.562924 4.773696
C 0.573207 -5.277149 -2.845082
H 2.725140 2.735786 3.633583
H 2.036038 -0.353126 5.987032
H 0.585297 3.776822 3.719053
C 1.576637 -6.215600 -2.951587
C 2.613312 -6.287789 -2.015288
H -2.062306 2.019599 -5.191002
C 4.490209 1.229324 2.222523
C 2.634469 -5.429125 -0.907734
H -3.691368 2.441333 -6.758606
C 1.628017 -4.486873 -0.846250
C 5.149087 2.441333 2.022514
H -6.402441 0.790493 -4.451474
C 1.380182 -3.390746 0.092838
H -4.824760 0.461845 -2.754129
C 6.330837 2.714889 2.674096
C 1.887941 -2.306018 2.106709
C 6.877887 1.795435 3.472531
C 2.652603 -2.262325 3.369204
C 6.273412 0.630918 3.690491
C -1.077011 -0.588689 -4.275021
C 3.728569 -2.997509 3.829828
C 5.091662 0.347863 3.065235
C 0.156119 -1.202292 -4.306025
C -1.796337 4.227051 2.348478
C 4.206105 -2.665061 5.096013
C 0.814997 -0.864145 -3.044942
C -1.203951 5.484652 2.463794
C 3.598607 -1.724710 5.877083
H 4.786402 3.072033 1.443014
C 2.135776 -1.198493 -2.731260
C 2.453126 -0.987626 5.452464
C -1.732867 6.500991 3.172802
H 6.747925 3.539359 2.558112
C 2.785588 -0.848948 -1.539422
C 2.017904 -1.299177 4.179472
C -2.938796 6.295824 3.824862
C 0.842199 -0.820452 3.378364
C 4.242374 -1.016121 -1.348033
C -3.570473 5.091414 3.708720
C 4.499276 -0.383521 -0.156549
C -2.996221 4.052278 2.982641
H -0.396976 5.630929 2.029354
C -1.255331 0.188288 3.364887
H -1.297645 7.321662 3.224268
N -0.055447 -0.123262 -2.276482
C -2.373611 0.718305 4.114168
H -4.395582 4.964134 4.123137
N 2.241560 -0.212548 -0.468445
C -2.467305 1.290114 5.385366
H -3.431443 3.233507 2.928543
H -1.708688 1.405996 5.910202
C -3.679278 1.670054 5.839449
N -1.681487 -0.187852 2.119019
C -4.854983 1.478185 5.085727
H -3.742748 2.070891 6.676295
N -3.866666 -0.353126 1.097440
C -4.755245 0.929171 3.796633
H -5.686137 1.709948 5.436429
N -2.252716 -1.492946 -0.303225
C -3.470734 0.577727 3.330506
H -5.510839 0.801891 3.269431
N -1.454808 -3.124788 -1.931032
N 0.255857 -2.701155 -0.272002