125
Zn1 H52 C56 N12 O4
H 4.124186 2.979491 -0.840680
H 0.321292 -8.486278 4.169724
H 2.284742 4.155752 -2.033099
H -0.507303 3.331814 -4.580086
H -9.351285 -1.597939 0.412856
H 2.876596 -3.137620 2.951112
H -0.511061 5.359754 -5.766268
H 4.475540 -1.378777 2.213958
H -0.191648 7.365501 -2.272581
H -4.124185 -2.979491 0.840680
H -0.155949 5.337561 -1.107602
H -2.284742 -4.155752 2.033099
H -5.183885 0.058258 1.254784
H 7.493053 0.288517 -1.302181
H 0.507303 -3.331814 4.580086
H 0.511061 -5.359754 5.766268
H 7.295769 2.077876 2.322473
H 0.191648 -7.365501 2.272581
H 4.995995 1.678391 2.406042
H 0.155949 -5.337561 1.107602
H 5.183885 -0.058258 -1.254784
H 0.916903 3.218072 3.906544
H -0.293108 3.856138 4.737245
H -7.493053 -0.288517 1.302181
H -0.552397 0.099871 3.294119
H -7.295769 -2.077876 -2.322473
H 0.772228 0.970970 3.059627
H -4.995995 -1.678391 -2.406042
H 0.730892 2.857426 1.564114
H -0.916903 -3.218072 -3.906544
H 0.293108 -3.856138 -4.737245
H -0.620037 3.226395 0.788294
H 0.552397 -0.099871 -3.294119
H -2.611671 0.685227 2.140367
H -0.772228 -0.970970 -3.059627
H -2.624823 1.936392 1.141280
H -0.730892 -2.857426 -1.564114
H -2.322320 2.574458 5.091479
H 0.620037 -3.226395 -0.788294
H -2.429418 1.076390 4.537677
H 2.611671 -0.685227 -2.140367
H -2.487664 4.152977 1.988196
H 2.624823 -1.936392 -1.141279
H -2.382445 4.424849 3.562289
C -1.378925 2.048747 -1.852240
H 2.322320 -2.574458 -5.091479
C -2.675366 2.384147 -2.407289
H 2.429418 -1.076390 -4.537677
C -3.549054 1.423165 -2.006906
H 2.487664 -4.152977 -1.988196
C -2.797306 0.480491 -1.203645
H 2.382445 -4.424849 -3.562289
C 3.334296 0.624472 0.523866
C 1.378925 -2.048747 1.852240
C 2.641921 1.514436 -0.288126
C 2.675366 -2.384147 2.407289
C 3.217240 2.700129 -0.895561
C 3.549054 -1.423165 2.006906
C 2.214659 3.334588 -1.559125
C 2.797306 -0.480491 1.203645
C 1.027007 2.535896 -1.411944
C -3.334296 -0.624472 -0.523866
C -0.225280 2.829684 -1.985702
C -2.641921 -1.514436 0.288126
C -0.322043 4.118300 -2.739071
C -3.217240 -2.700129 0.895561
C -0.435341 4.150481 -4.103617
C -2.214659 -3.334588 1.559125
C -0.446990 5.356980 -4.818320
C -1.027007 -2.535896 1.411944
C -0.361688 6.566531 -4.096133
C 0.225280 -2.829684 1.985702
C -0.253651 6.547389 -2.751544
C 0.322043 -4.118300 2.739071
C -0.231856 5.335341 -2.054303
C 0.435341 -4.150481 4.103617
C 4.833846 0.809512 0.576253
C 0.446990 -5.356980 4.818320
C 5.609268 0.377569 -0.525113
C 0.361688 -6.566531 4.096133
C 6.984247 0.583414 -0.556296
C 0.253652 -6.547389 2.751544
C 7.608042 1.215100 0.497673
C 0.231856 -5.335341 2.054303
C 6.864937 1.636778 1.599039
C -4.833846 -0.809512 -0.576253
C 5.490709 1.413732 1.638952
C -5.609268 -0.377569 0.525113
C -0.069895 3.255246 3.983876
C -6.984247 -0.583414 0.556296
C -0.213631 1.016467 3.128228
C -7.608042 -1.215100 -0.497673
C -0.256470 2.883226 1.642694
C -6.864937 -1.636778 -1.599039
C -2.246037 1.593500 1.988196
C -5.490709 -1.413732 -1.638952
C 0.069895 -3.255246 -3.983876
C -2.064911 1.976063 4.345593
C 0.213631 -1.016467 -3.128228
C -2.108314 3.810641 2.836360
N -1.481137 0.875260 -1.159116
C 0.256470 -2.883226 -1.642694
N 1.314854 1.436481 -0.628390
C 2.246037 -1.593500 -1.988196
N -0.760015 1.511107 1.867832
C 2.064911 -1.976063 -4.345593
N -0.587908 1.895888 4.275495
C 2.108314 -3.810641 -2.836360
N 1.481137 -0.875260 1.159116
N -2.657140 2.478748 3.102035
N -0.634505 3.805648 2.739071
N -1.314854 -1.436481 0.628390
O -0.365446 7.720321 -4.851997
N 0.760015 -1.511107 -1.867832
O 8.965547 1.417616 0.532223
N 0.587908 -1.895888 -4.275495
N 2.657140 -2.478748 -3.102035
Zn 0.000000 0.000000 0.000000
N 0.634505 -3.805648 -2.739071
H -0.321292 8.486278 -4.169724
O 0.365446 -7.720321 4.851997
H 9.351285 1.597939 -0.412856
O -8.965547 -1.417616 -0.532223
H -2.876596 3.137620 -2.951112
H -4.475540 1.378777 -2.213958