94
Mn1 H31 C48 N4 O10
O 9.315581 3.420108 -0.780835
O 9.285750 3.269525 1.434997
H 0.880125 -3.893222 -6.879072
H 0.432662 -2.468925 1.317358
H 1.521343 0.033577 -7.547374
H 1.661713 -2.262602 0.531469
H -1.454110 1.740736 -1.361592
H -1.058843 2.389656 -0.137148
O -2.984085 3.946898 8.398798
H 1.500051 -3.643637 -10.127615
C -2.275313 -1.620337 -1.225682
C -2.677362 -2.282569 -2.423125
C -1.690478 -2.164432 -3.310529
C -0.607462 -1.453948 -2.669548
C 0.610482 -1.136143 -3.266337
C 1.663470 -0.492215 -2.592700
C 1.807328 2.036910 3.274788
C 0.746387 1.316442 2.611060
C -0.523448 1.115110 3.150827
C -1.532655 0.394643 2.520439
C -2.829503 0.151714 3.082589
C -3.514013 -0.600368 2.196285
C -2.680343 -0.808355 1.066351
C -3.055345 -1.482234 -0.098191
C 0.819324 -1.452284 -4.709439
C 0.740543 -2.746796 -5.190255
C 1.105330 -0.412348 -5.607161
C -0.840906 1.699139 4.494181
C -1.714447 2.744066 4.627303
C -2.114637 3.199974 5.879060
C -1.606854 2.617610 7.029447
C -0.657982 1.585994 6.912133
C -0.282856 1.136741 5.656520
C -2.082191 2.965365 8.377212
C -4.460513 -2.032984 -0.106758
C -5.478731 -1.329155 -0.752607
C -6.795880 -1.740138 -0.601106
C -7.099609 -2.873252 0.141303
H 3.258228 -0.545459 -4.002248
C -6.082336 -3.617015 0.726788
H 4.592335 0.637572 -2.307681
C -4.755819 -3.192721 0.587187
H 3.715809 2.417942 2.605932
C -8.540354 -3.225999 0.390711
H 5.283859 0.612613 1.769932
H 7.453462 1.452882 1.882537
H 4.511277 3.028593 -1.383979
C 0.941302 -3.001372 -6.556780
C 1.224093 -1.988059 -7.432912
C 1.315230 -0.676907 -6.950506
H -2.738465 3.913786 5.946709
C 1.449714 -2.250955 -8.875563
H -3.346103 4.033587 9.210705
N -0.993302 -1.125494 -1.388368
N 1.618969 0.006622 -1.301951
N 1.176424 0.893479 1.365227
N -1.445732 -0.202696 1.279538
O -1.694865 2.402967 9.393157
O -8.710975 -4.285070 1.152141
O -9.448802 -2.544965 -0.050641
C 2.961672 -0.280900 -3.140127
C 3.689423 0.358037 -2.212360
C 2.877713 0.544394 -1.066803
C 3.298821 1.171683 0.112261
C 2.487487 1.339737 1.229983
C 2.865793 2.030254 2.431981
O 0.858587 -2.037310 0.727242
O -0.756846 1.806127 -0.804109
C 4.679014 1.719105 0.165188
C 5.569391 1.263197 1.139319
C 6.866240 1.752383 1.198209
C 7.313095 2.689158 0.250264
C 6.436054 3.148394 -0.714662
C 5.117445 2.682502 -0.739953
C 8.720946 3.155049 0.270523
O 1.432337 -3.497547 -9.204032
O 1.702022 -1.350786 -9.664240
Mn 0.093208 -0.119502 -0.005166
H 6.728228 3.779011 -1.359780
H -3.503574 -2.730157 -2.564523
H -1.698433 -2.487228 -4.202694
H 1.770409 2.437909 4.135266
H -3.146298 0.462863 3.922741
H -4.397289 -0.931484 2.309625
H 0.549147 -3.463936 -4.596986
H 1.156563 0.482829 -5.290101
H -2.053788 3.168360 3.848702
H -0.276511 1.199969 7.692078
H 0.358703 0.441232 5.578936
H -5.271071 -0.573746 -1.291314
H -7.494986 -1.242633 -1.007816
H -6.286055 -4.404038 1.217730
H -4.053147 -3.703537 0.971261
H -9.502786 -4.833324 1.063977