156
Cd2 Cu2 H52 C84 I4 N12
H -3.867218 -5.898695 -11.080158
C -0.959133 2.484315 -9.471130
C -1.488955 1.242158 -9.812238
C -1.741947 0.814428 -11.156425
H -5.537553 -5.135246 -12.524114
C -2.362655 -0.399132 -11.088965
H -6.068625 -2.872256 -12.549933
C -2.499511 -0.716199 -9.704823
H -5.045864 -1.393853 -11.072637
C -0.767323 3.490227 -10.552920
C 0.458933 4.049757 -10.810443
C 0.627716 4.969874 -11.820027
C -0.443843 5.347868 -12.615743
C -1.687606 4.795798 -12.364253
C -1.862265 3.888115 -11.334541
C -3.845932 -2.762837 -10.171682
C -3.517496 -4.124361 -10.187002
H 5.118872 3.839622 1.363971
C -4.121946 -4.983551 -11.068929
C -4.804582 -2.312726 -11.060982
Cd 3.702632 5.906279 -0.626443
Cu -1.587265 0.216725 -6.954523
H 4.638864 3.789886 7.779996
H 4.243449 3.844596 5.345703
H 0.856055 1.279460 2.117716
H 0.352663 0.866651 -2.287155
H 0.497251 4.744818 -5.913405
H -0.060072 4.889053 -8.312203
Cd -3.702632 -5.906279 0.626443
Cu 1.587265 -0.216725 6.954523
H -4.638864 -3.789886 -7.779996
H 0.866665 3.756315 3.125066
H -4.243449 -3.844596 -5.345703
H 1.475375 5.245909 1.465584
H -0.856055 -1.279460 -2.117716
H -0.352663 -0.866651 2.287155
H 4.687369 2.407224 3.124425
C -5.096582 -4.532197 -11.937592
H -0.497251 -4.744818 5.913405
C -5.417118 -3.196784 -11.938835
H 2.536891 3.134614 -4.861939
H 3.747692 4.390449 -3.375769
H 0.060072 -4.889053 8.312203
H 0.671022 4.680162 -0.948643
H -0.866665 -3.756315 -3.125066
H -0.632676 3.387024 -2.355987
H -1.475375 -5.245909 -1.465584
H -4.687369 -2.407224 -3.124425
H -2.536891 -3.134614 4.861939
H -3.747692 -4.390449 3.375769
H -0.671022 -4.680162 0.948643
H 2.867448 4.457593 9.580130
H 0.632676 -3.387024 2.355987
C 3.313879 2.121242 7.827021
C 4.078656 3.199271 7.288472
H -2.867448 -4.457593 -9.580130
C 3.865109 3.230356 5.964004
C 2.955294 2.159788 5.656094
C 2.383664 1.934732 4.422189
C 1.491626 0.925090 4.136984
C 0.831492 0.705008 2.873266
C -3.313879 -2.121242 -7.827021
C -0.176592 0.463789 -2.965286
C -4.078656 -3.199271 -7.288472
C -0.422390 0.987260 -4.267961
C -3.865109 -3.230356 -5.964004
C 0.035207 2.238122 -4.722605
C -2.955294 -2.159788 -5.656094
C -0.167529 2.723048 -6.011983
C -2.383664 -1.934732 -4.422189
C 0.142245 4.046027 -6.451080
C -0.156432 4.123118 -7.757072
C -1.491626 -0.925090 -4.136984
C -0.648284 2.836198 -8.162396
C -0.831492 -0.705008 -2.873266
H -5.118872 -3.839622 -1.363971
C 0.422390 -0.987260 4.267961
C 0.176592 -0.463789 2.965286
C -0.035207 -2.238122 4.722605
C 0.167529 -2.723048 6.011983
C -0.142245 -4.046027 6.451080
C 0.156432 -4.123118 7.757072
C 3.197314 1.827800 9.203139
C 2.726586 2.892151 3.315958
C 0.648284 -2.836198 8.162396
C 1.757068 3.765018 2.794219
C 2.126882 4.634156 1.788935
I 6.204269 5.322876 -1.463022
C 4.249326 3.832162 1.746201
C 3.994468 2.958051 2.781084
C 0.800695 3.104772 -3.775725
C -3.197314 -1.827800 -9.203139
C 2.131269 3.431787 -4.057022
C -2.726586 -2.892151 -3.315958
C 2.845511 4.182801 -3.161160
C -1.757068 -3.765018 -2.794219
C 1.057431 4.345687 -1.749283
C -2.126882 -4.634156 -1.788935
C 0.267824 3.582238 -2.590915
C -4.249326 -3.832162 -1.746201
C -3.994468 -2.958051 -2.781084
C -0.800695 -3.104772 3.775725
C -2.131269 -3.431787 4.057022
C -2.845511 -4.182801 3.161160
C -1.057431 -4.345687 1.749283
C -0.267824 -3.582238 2.590915
I 2.482748 8.299329 -0.416297
N 2.661472 1.457266 6.814283
N -1.176762 0.116880 -4.996557
N -0.688454 1.998146 -7.056463
N -1.909501 0.266088 -8.922894
N 3.326722 4.667728 1.254702
N 2.358623 4.639129 -2.009370
I -2.482748 -8.299329 0.416297
N -2.661472 -1.457266 -6.814283
N 1.176762 -0.116880 4.996557
N 0.688454 -1.998146 7.056463
N 1.909501 -0.266088 8.922894
N -3.326722 -4.667728 -1.254702
N -2.358623 -4.639129 2.009370
H 5.537553 5.135246 12.524114
H 6.068625 2.872256 12.549933
H 5.045864 1.393853 11.072637
H 2.649225 0.931307 11.821970
H 1.519295 -1.288164 11.949101
I -6.204269 -5.322876 1.463022
H 3.867218 5.898695 11.080158
H -1.207290 -3.797347 10.281189
H -1.484320 -5.349111 11.974878
H 0.326442 -5.974542 13.318858
H 2.429717 -5.041991 12.904481
H 2.724954 -3.533746 11.155635
C 2.362655 0.399132 11.088965
C 2.499511 0.716199 9.704823
C 5.096582 4.532197 11.937592
C 5.417118 3.196784 11.938835
C 0.959133 -2.484315 9.471130
C 1.488955 -1.242158 9.812238
C 1.741947 -0.814428 11.156425
C 3.845932 2.762837 10.171682
C 0.767323 -3.490227 10.552920
C 3.517496 4.124361 10.187002
C -0.458933 -4.049757 10.810443
C 4.121946 4.983551 11.068929
C -0.627716 -4.969874 11.820027
C 0.443843 -5.347868 12.615743
C 1.687606 -4.795798 12.364253
C 4.804582 2.312726 11.060982
C 1.862265 -3.888115 11.334541
H -1.519295 1.288164 -11.949101
H -2.649225 -0.931307 -11.821970
H 1.207290 3.797347 -10.281189
H 1.484320 5.349111 -11.974878
H -0.326442 5.974542 -13.318858
H -2.429717 5.041991 -12.904481
H -2.724954 3.533746 -11.155635