165
P2 H74 Rh1 C84 N4
C 3.749110 -0.479960 -4.192177
P 0.995634 -1.633076 -1.397415
C -3.749110 0.479960 4.192177
C 2.981873 0.150290 -5.140161
P -0.995634 1.633076 1.397415
H -3.186452 0.963556 -2.746703
C -2.981873 -0.150290 5.140161
H -0.153500 -4.083295 4.887504
C 1.614134 0.221800 -4.990338
H 3.186452 -0.963556 2.746703
C -1.614134 -0.221800 4.990338
C 1.007543 -0.344214 -3.874491
H -0.989812 -4.749906 3.697773
H 0.153500 4.083295 -4.887504
C -1.007543 0.344214 3.874491
H -1.603812 -3.519706 4.515811
C -0.095011 -3.005810 -1.887674
H 0.989812 4.749906 -3.697773
C 0.125711 -4.302671 -1.442333
C 0.095011 3.005810 1.887674
H -5.528653 -3.034898 -0.735291
H 1.603812 3.519706 -4.515811
C -0.743682 -5.314708 -1.781874
C -0.125711 4.302671 1.442333
H 5.528653 3.034898 0.735291
H -5.279877 -2.935512 0.841293
C -1.852588 -5.049275 -2.571603
C 0.743682 5.314708 1.781874
H -4.393281 -3.928157 -0.046493
H 5.279877 2.935512 -0.841293
C -2.095807 -3.759686 -3.005899
C 1.852588 5.049275 2.571603
H 4.393281 3.928157 0.046493
H 3.009133 -2.687048 4.069139
C 2.095807 3.759686 3.005899
H 1.969037 -3.724537 4.699079
C -1.226414 -2.746437 -2.669881
H -3.009133 2.687048 -4.069139
C 1.226414 2.746437 2.669881
C 2.325263 -2.477369 -0.631966
H -1.969037 3.724537 -4.699079
H 2.657141 -2.116187 6.288899
C 3.243882 -3.111255 -0.213533
C -2.325263 2.477369 0.631966
H -2.657141 2.116187 -6.288899
H 1.074501 -2.051950 6.058583
C 4.313885 -3.945125 0.310758
C -3.243882 3.111255 0.213533
H -1.074501 2.051950 -6.058583
H 2.027261 -0.959920 5.379723
C 5.416969 -4.246918 -0.485423
C -4.313885 3.945125 -0.310758
H -2.027261 0.959920 -5.379723
H -5.287817 0.275129 -2.172264
C 6.378197 -5.129269 0.019633
C -5.416969 4.246918 0.485423
H 5.287817 -0.275129 2.172264
H -5.975921 -1.093242 -1.716714
C 6.240577 -5.683162 1.282042
C -6.378197 5.129269 -0.019633
H 5.975921 1.093242 1.716714
C 5.174015 -5.352280 2.034931
H -5.732438 -0.936891 -4.087389
C -6.240577 5.683162 -1.282042
H 5.732438 0.936891 4.087389
H -5.007282 -2.234965 -3.495331
C 4.213316 -4.494170 1.567267
C -5.174015 5.352280 -2.034931
H 5.007282 2.234965 3.495331
H -4.141859 -0.949012 -3.897261
C -4.213316 4.494170 -1.567267
H 4.141859 0.949012 3.897261
H -3.924841 -2.231329 3.247421
N 0.193463 -1.370795 1.512869
H -5.181955 -3.848164 4.354930
H 3.924841 2.231329 -3.247421
N -0.193463 1.370795 -1.512869
N -1.889905 -0.728424 -0.285174
H -4.845842 -6.106157 3.880022
H 5.181955 3.848164 -4.354930
N 1.889905 0.728424 0.285174
H -3.310840 -6.747315 2.264257
H 4.845842 6.106157 -3.880022
H -2.080192 -5.126845 1.134385
H 3.310840 6.747315 -2.264257
H 2.080192 5.126845 -1.134385
H 3.697237 -1.487149 -2.425647
H -3.697237 1.487149 2.425647
H 4.692342 -0.523593 -4.302994
H -4.692342 0.523593 4.302994
H 3.395530 0.536925 -5.902982
H -3.395530 -0.536925 5.902982
H 1.085088 0.659339 -5.648544
H -1.085088 -0.659339 5.648544
H 0.066164 -0.292097 -3.769528
H 0.881303 -4.492958 -0.898423
H -0.066164 0.292097 3.769528
H -0.582242 -6.199482 -1.476148
H -0.881303 4.492958 0.898423
H -2.445417 -5.752247 -2.809659
H 0.582242 6.199482 1.476148
H -2.860926 -3.573035 -3.535711
H 2.445417 5.752247 2.809659
H 2.860926 3.573035 3.535711
H -1.397381 -1.861663 -2.971196
H 5.515421 -3.862708 -1.348782
H 1.397381 1.861663 2.971196
H -5.515421 3.862708 1.348782
H -7.135112 5.352280 0.511196
H 7.135112 -5.352280 -0.511196
H 5.084032 -5.720734 2.904301
H -6.891629 6.290384 -1.612891
H 6.891629 -6.290384 1.612891
H 3.472280 -4.276007 2.116797
H -5.084032 5.720734 -2.904301
H -3.472280 4.276007 -2.116797
Rh -0.000000 0.000000 0.000000
C 1.320631 -1.477452 2.297135
C -1.320631 1.477452 -2.297135
C 1.106525 -2.456765 3.330866
C -1.106525 2.456765 -3.330866
C -0.157205 -2.947633 3.179693
C 0.157205 2.947633 -3.179693
C -0.731508 -2.271325 1.997574
C 0.731508 2.271325 -1.997574
C -1.997355 -2.476157 1.451125
C 1.997355 2.476157 -1.451125
C -2.529048 -1.771973 0.358271
C 2.529048 1.771973 -0.358271
C -3.849150 -1.964684 -0.256590
C 3.849150 1.964684 0.256590
C -3.983859 -0.993856 -1.208845
C 3.983859 0.993856 1.208845
C -2.755858 -0.242404 -1.236145
C 2.755858 0.242404 1.236145
C -2.483527 0.750240 -2.144719
C -0.780469 -3.908764 4.155360
C 2.483527 -0.750240 2.144719
C -4.849547 -3.061563 -0.029920
C 0.780469 3.908765 -4.155360
C 4.849547 3.061563 0.029920
C 2.091308 -2.780374 4.426965
C -2.091308 2.780374 -4.426965
C 1.950511 -1.900447 5.644903
C -1.950511 1.900447 -5.644903
C -5.159194 -0.704184 -2.118313
C 5.159194 0.704184 2.118313
C -4.995372 -1.254441 -3.524788
C -2.858544 -3.525766 2.093844
C 4.995372 1.254441 3.524788
C -3.796483 -3.151252 3.047537
C 2.858544 3.525766 -2.093844
C -4.539371 -4.106324 3.705520
C 3.796483 3.151252 -3.047537
C -4.344055 -5.445606 3.415516
C 4.539371 4.106324 -3.705520
C -3.436287 -5.827392 2.466800
C 4.344055 5.445606 -3.415516
C -2.701603 -4.863836 1.801466
C 3.436287 5.827392 -2.466800
C 2.701603 4.863836 -1.801466
C 1.782190 -0.990220 -2.908092
C -1.782190 0.990220 2.908092
C 3.159457 -1.052033 -3.075315
C -3.159457 1.052033 3.075315