212
Zn2 H90 C84 N20 O16
H 2.407419 9.470990 -0.100414
H -2.407419 -9.470990 0.100414
H 2.249363 7.867975 -1.822124
H 2.001176 -1.953792 -8.115387
H -2.249363 -7.867975 1.822124
C 0.005225 4.439786 6.883330
H 1.316700 7.419131 -0.602391
H 0.583894 -2.342288 -8.750092
H -1.316700 -7.419131 0.602391
C -1.139050 3.583587 7.212589
H 2.740513 6.721348 -0.822272
H 0.432369 -0.316831 -7.498978
H -2.740513 -6.721348 0.822272
C -2.223238 4.103341 6.587104
H 6.030958 7.539828 2.123209
H -0.532950 -1.433284 -6.878286
H -6.030958 -7.539828 -2.123209
H 5.426164 7.792539 0.660648
H 0.868657 -1.108909 -6.177804
H -5.426164 -7.792539 -0.660648
H 6.187708 5.570949 0.777364
H -6.187708 -5.570949 -0.777364
H 4.591470 5.540774 0.658127
H 3.720201 -2.960863 -7.398756
H -4.591470 -5.540774 -0.658127
H 5.291620 5.299379 2.076369
H -5.291620 -5.299379 -2.076369
C 4.216576 6.847326 4.550624
C 3.769839 6.260811 5.729845
C 4.537914 5.973022 6.943025
H -0.491150 3.534177 4.172017
C 3.713670 5.217531 7.728830
H 0.491150 -3.534177 -4.172017
H -0.610019 1.780290 2.688184
C 2.446607 5.098719 7.031779
H 0.610019 -1.780290 -2.688184
H 2.373457 3.519089 0.588903
C 1.287963 4.419418 7.404829
H -2.373457 -3.519089 -0.588903
H 2.366926 5.239030 2.129299
C -1.081575 2.249124 7.899777
H -2.366926 -5.239030 -2.129299
H 1.440794 1.380479 -0.283878
C -0.401019 1.180196 7.035836
H -1.440794 -1.380479 0.283878
C -1.737313 5.276748 5.842675
C 1.737313 -5.276748 -5.842675
C -2.460976 6.220830 5.095174
C 2.460976 -6.220830 -5.095174
C -2.027301 7.256943 4.277269
C 2.027301 -7.256943 -4.277269
C -2.787538 8.384334 3.734552
C 2.787538 -8.384334 -3.734552
C -1.929332 9.099090 2.961085
H -6.473777 -6.593106 -6.619781
C 1.929332 -9.099090 -2.961085
C -0.662269 8.368870 2.996091
C 0.662269 -8.368870 -2.996091
H -6.259552 -5.944357 -8.069497
C 0.483313 8.617054 2.231777
H -6.510352 -8.286645 -8.309463
C -0.483313 -8.617054 -2.231777
C 1.771276 8.127475 2.369960
C 5.855921 6.539547 7.390369
H -5.019920 -7.886834 -8.737317
C -1.771276 -8.127475 -2.369960
C 2.903795 8.211586 1.455434
C 5.650839 7.940771 7.989060
H -5.294233 -8.539355 -7.300462
C -2.903795 -8.211586 -1.455434
C 3.977532 7.686551 2.119866
C 4.144733 4.726820 9.094941
H -3.340082 -4.526160 -9.633578
C -3.977532 -7.686551 -2.119866
C 3.486382 7.302582 3.441131
C 5.026452 3.475337 9.028012
C -3.486382 -7.302582 -3.441131
H -4.643720 -5.446479 -9.553205
H -5.231533 -3.172084 -9.936745
H -5.859839 -3.688820 -8.557966
H -4.550976 -2.764729 -8.546340
N -0.385344 5.402349 5.992270
C -3.593495 3.494196 6.575550
C 3.593495 -3.494196 -6.575550
C -0.005225 -4.439786 -6.883330
N 2.507870 5.772740 5.834417
C -3.805107 2.599902 5.355751
C 1.139050 -3.583587 -7.212589
C 3.805107 -2.599902 -5.355751
C -4.194370 8.832424 4.042083
C 2.223238 -4.103341 -6.587104
C 4.194370 -8.832424 -4.042083
C -4.271439 9.708613 5.297349
C 4.271439 -9.708613 -5.297349
C -2.176213 10.469385 2.410715
N 5.671739 7.093624 4.448163
C 2.176213 -10.469385 -2.410715
N 1.435569 3.604709 8.633587
C -1.446019 11.553023 3.213518
C 1.446019 -11.553023 -3.213518
C 2.895957 8.615923 -0.002692
C -2.895957 -8.615923 0.002692
C 2.242832 7.561705 -0.891714
C -2.242832 -7.561705 0.891714
C 5.296845 7.295038 1.507455
C -5.296845 -7.295038 -1.507455
C 5.346483 5.790845 1.229938
C -5.346483 -5.790845 -1.229938
O 6.048593 8.261751 4.515892
O 6.413689 6.127666 4.309570
C 0.090131 3.536817 3.421747
O 2.095226 2.570859 8.574092
C -0.090131 -3.536817 -3.421747
C -4.216576 -6.847326 -4.550624
C 0.018288 2.477695 2.546352
O 0.867350 4.020739 9.643845
C -3.769839 -6.260811 -5.729845
C -0.018288 -2.477695 -2.546352
C 0.879107 2.442240 1.447121
C -0.879107 -2.442241 -1.447121
C -4.537914 -5.973022 -6.943025
C 1.762132 3.497590 1.314070
C -1.762132 -3.497590 -1.314070
C -3.713670 -5.217531 -7.728830
C 1.750376 4.523897 2.243017
C -2.446607 -5.098719 -7.031779
C -1.750376 -4.523897 -2.243017
C 0.828163 1.381233 0.440641
C -1.287963 -4.419418 -7.404829
C -0.828163 -1.381233 -0.440641
C 1.081575 -2.249124 -7.899777
N -0.728496 7.307485 3.844461
C 0.401019 -1.180196 -7.035836
N 0.728496 -7.307485 -3.844461
N 2.145124 7.500601 3.530890
N -2.145124 -7.500601 -3.530890
N -3.934426 6.122009 5.244008
N 3.934426 -6.122009 -5.244008
N 0.282150 9.531339 1.081674
N -0.282150 -9.531339 -1.081674
N 0.930050 4.566895 3.278609
N -0.930050 -4.566895 -3.278609
N -0.044413 0.455256 0.540402
N 0.044413 -0.455256 -0.540402
O -4.567958 5.631675 4.331896
O 4.567958 -5.631675 -4.331896
O -4.425576 6.562932 6.282348
O 4.425576 -6.562932 -6.282348
O 0.822938 10.631573 1.114803
C -5.855921 -6.539547 -7.390369
O -0.822938 -10.631573 -1.114803
O -0.412253 9.130019 0.154275
C -5.650839 -7.940771 -7.989060
O 0.412253 -9.130019 -0.154275
C -4.144733 -4.726820 -9.094941
C -5.026452 -3.475337 -9.028012
H -2.001176 1.953792 8.115387
H -0.583894 2.342288 8.750092
H -0.432369 0.316831 7.498978
H 0.532950 1.433284 6.878286
N 0.385344 -5.402349 -5.992270
H -0.868657 1.108909 6.177804
H -3.720201 2.960863 7.398756
N -2.507870 -5.772740 -5.834417
N -5.671739 -7.093624 -4.448163
N -1.435569 -3.604709 -8.633587
O -6.048593 -8.261751 -4.515892
O -6.413689 -6.127666 -4.309570
O -2.095226 -2.570859 -8.574092
O -0.867350 -4.020739 -9.643845
Zn 0.882372 6.277369 4.633233
Zn -0.882372 -6.277369 -4.633233
H -4.272745 4.216872 6.573258
H 4.272745 -4.216872 -6.573258
H -4.671151 2.149926 5.427068
H 4.671151 -2.149926 -5.427068
H 6.473777 6.593106 6.619781
H -3.090588 1.931162 5.313313
H 3.090588 -1.931162 -5.313313
H 6.259552 5.944357 8.069497
H -3.788126 3.145681 4.542569
H 3.788126 -3.145681 -4.542569
H -4.766508 8.033934 4.167669
H 6.510352 8.286645 8.309463
H 4.766508 -8.033934 -4.167669
H -4.547058 9.342749 3.269422
H 5.019920 7.886834 8.737317
H 4.547058 -9.342749 -3.269422
H -5.198877 9.987726 5.442297
H 5.294233 8.539355 7.300462
H 5.198877 -9.987726 -5.442297
H 3.340082 4.526160 9.633578
H -3.705832 10.500691 5.179837
H 3.705832 -10.500691 -5.179837
H 4.643720 5.446479 9.553205
H -3.960551 9.195648 6.073020
H 3.960551 -9.195648 -6.073020
H -3.149370 10.655335 2.423188
H 5.231533 3.172084 9.936745
H 3.149370 -10.655335 -2.423188
H -1.873163 10.500691 1.469102
H 5.859839 3.688820 8.557966
H 1.873163 -10.500691 -1.469102
H -1.686369 12.435625 2.862176
H 4.550976 2.764729 8.546340
H 1.686369 -12.435625 -2.862176
H -0.478088 11.421010 3.133944
H 0.478088 -11.421010 -3.133944
H -1.708576 11.492675 4.155999
H 1.708576 -11.492675 -4.155999
H 3.827314 8.761891 -0.304133
H -3.827314 -8.761891 0.304133