179
Mn1 Fe2 B2 H72 C80 N22
N 0.782013 3.387064 -5.763525
N -0.048475 2.478166 -5.140418
N 1.002033 -5.131590 6.010742
N 0.592234 5.234919 -4.121878
N 1.998385 -4.496851 5.343563
N -0.202921 4.580320 -3.197756
Fe -1.462087 3.203352 -3.910936
N 3.482794 -1.141993 4.905941
N 0.433703 -1.366232 1.693347
B -0.469657 -4.888698 5.590098
N 3.745548 -3.982887 2.015072
H -1.119025 -5.437553 6.309146
Mn 0.000000 0.000000 0.000000
H 3.482333 -1.270820 -4.229777
H 5.269074 -2.308142 -5.272444
H 6.458781 -3.938603 -4.127924
H 6.016019 -4.376076 -1.937563
H 4.226185 -3.334728 -0.891718
H 1.478477 -3.507839 -3.389588
H -3.157522 -4.196256 6.595824
H -3.563217 -2.867732 7.323075
H -2.498144 -3.820512 7.967926
H -2.082676 -0.730017 6.600504
H 0.947039 3.805750 3.294587
H 2.864547 4.671303 1.354835
H 4.534403 5.927362 2.431469
H -1.922998 -7.422286 4.959618
H 5.937717 4.902118 3.911621
H 5.731151 2.655705 4.346640
H -0.316670 0.022813 -4.026790
H 4.083175 1.435879 3.354833
H -2.732720 -7.632971 3.632922
H 4.854141 1.509686 0.520794
H -3.072793 -6.427907 4.577601
H 0.404005 -0.750146 -5.184065
H -0.046961 -7.223679 7.302760
H 1.025188 0.147614 5.415213
H -1.207931 7.547087 -8.185205
H 0.324309 -6.292370 8.507659
H -3.504277 6.422539 -7.281541
H -4.595606 4.655200 -4.441772
H 1.379618 -4.308979 0.866896
H -5.187988 4.996054 -5.853211
H -4.603255 3.569568 -5.572151
H 1.505262 6.529894 -1.476254
H 0.038094 3.925183 -0.319679
H -0.526464 5.369114 -0.089606
C 3.981111 -1.904217 -3.767667
C 5.043610 -2.525537 -4.396814
C 5.770490 -3.483684 -3.698632
C 5.493616 -3.764150 -2.403680
C 4.424932 -3.134779 -1.777428
C 3.653457 -2.208838 -2.467349
C 2.531050 -1.512370 -1.751229
C 1.235255 -1.971314 -1.949024
C 0.886278 -3.024739 -2.859687
C 0.446894 3.189798 2.808928
C 0.953638 2.223599 1.851386
C -2.840301 -3.471606 7.139892
C 2.287320 2.074644 1.514265
C -1.750402 -2.742931 6.416306
C 3.315483 2.916042 2.220188
C -1.558560 -1.411724 6.246764
C -0.427686 -1.250691 5.442313
C 3.440485 4.259327 1.958703
C 4.445625 5.018867 2.607560
C -2.365225 -6.979445 4.233536
C 5.275300 4.408283 3.484274
C -1.373615 -6.116576 3.489507
C 5.147522 3.066340 3.750638
C 2.865598 -0.469680 -0.913884
C 4.175362 2.337665 3.146744
C 2.760363 1.150045 0.576354
C -0.123157 -5.075228 1.983180
C 4.138722 1.010483 0.198816
C 4.198812 0.026839 -0.708760
C 0.677192 -6.842567 7.804485
C -1.531165 6.010562 -6.898764
C -2.884326 5.926020 -6.796595
C -3.170995 4.965189 -5.837507
C 0.181087 0.017445 4.975872
C -4.507345 4.506244 -5.387159
C -2.867350 3.725234 -2.720313
C -0.872052 2.019624 -2.529979
C -2.722368 1.880062 -4.537902
C 1.102348 6.032034 -2.151039
C -0.490028 4.629703 -0.701041
N -0.782013 -3.387064 5.763525
N 0.048475 -2.478166 5.140418
N -0.592234 -5.234919 4.121878
N 0.202921 -4.580320 3.197756
N -1.002033 5.131590 -6.010742
N -1.998385 4.496851 -5.343563
N -3.482794 1.141993 -4.905941
N -0.433703 1.366232 -1.693347
N -0.103411 1.508075 1.335742
N -3.745548 3.982887 -2.015072
N 1.994781 0.259800 -0.130044
H -3.482333 1.270820 4.229777
H -5.269074 2.308142 5.272444
H -6.458781 3.938603 4.127924
H -0.947039 -3.805750 -3.294587
Fe 1.462087 -3.203352 3.910936
H -2.864547 -4.671303 -1.354835
H -4.226185 3.334728 0.891718
H -4.534403 -5.927362 -2.431469
H -1.478477 3.507839 3.389588
H -5.937717 -4.902118 -3.911621
H -6.016019 4.376076 1.937563
H -5.731151 -2.655705 -4.346640
B 0.469657 4.888698 -5.590098
H -4.083175 -1.435879 -3.354833
H 1.119025 5.437553 -6.309146
H -4.854141 -1.509686 -0.520794
H -4.967918 0.281808 1.130493
H -1.025188 -0.147614 -5.415213
H 4.967918 -0.281808 -1.130493
H -0.404005 0.750146 5.184065
H -1.505262 -6.529894 1.476254
H -0.038094 -3.925183 0.319679
H 0.526464 -5.369114 0.089606
H 3.157522 4.196256 -6.595824
H 3.563217 2.867732 -7.323075
H 2.498144 3.820512 -7.967926
H 2.082676 0.730017 -6.600504
H 0.316670 -0.022813 4.026790
H -1.379618 4.308979 -0.866896
H 1.922998 7.422286 -4.959618
H 2.732720 7.632971 -3.632922
H 3.072793 6.427907 -4.577601
H 1.207931 -7.547087 8.185205
H 3.504277 -6.422539 7.281541
H 0.046961 7.223679 -7.302760
H 4.595606 -4.655200 4.441772
H -0.324309 6.292370 -8.507659
H 5.187988 -4.996054 5.853211
H 4.603255 -3.569568 5.572151
C -3.981111 1.904217 3.767667
C -5.043610 2.525537 4.396814
C -5.770490 3.483684 3.698632
C -5.493616 3.764150 2.403680
C -4.424932 3.134779 1.777428
C -3.653457 2.208838 2.467349
C -0.446894 -3.189798 -2.808928
C -2.531050 1.512370 1.751229
C -0.953638 -2.223599 -1.851386
C -1.235255 1.971314 1.949024
C -2.287320 -2.074644 -1.514265
C -0.886278 3.024739 2.859687
C -3.315483 -2.916042 -2.220188
C -3.440485 -4.259327 -1.958703
C -4.445625 -5.018867 -2.607560
C -5.275300 -4.408283 -3.484274
C -5.147522 -3.066340 -3.750638
C -4.175362 -2.337665 -3.146744
C -2.760363 -1.150045 -0.576354
C -4.138722 -1.010483 -0.198816
C -4.198812 -0.026839 0.708760
C -2.865598 0.469680 0.913884
C -0.181087 -0.017445 -4.975872
C -1.102348 -6.032034 2.151039
C 0.490028 -4.629703 0.701041
C 2.840301 3.471606 -7.139892
C 1.750402 2.742931 -6.416306
C 1.558560 1.411724 -6.246764
C 0.427686 1.250691 -5.442313
C 2.365225 6.979445 -4.233536
C 1.373615 6.116576 -3.489507
C 0.123157 5.075228 -1.983180
C 1.531165 -6.010562 6.898764
C 2.884326 -5.926020 6.796595
C -0.677192 6.842567 -7.804485
C 3.170995 -4.965189 5.837507
C 4.507345 -4.506244 5.387159
C 2.867350 -3.725234 2.720313
C 0.872052 -2.019624 2.529979
C 2.722368 -1.880062 4.537902
N 0.103411 -1.508075 -1.335742
N -1.994781 -0.259800 0.130044