87
Mn1 H34 C46 N4 O2
H 0.705109 -2.320588 5.242345
H 1.854246 -3.624289 6.776872
H 3.794248 -4.704498 6.175090
H 4.623228 -4.464866 4.042044
H 3.489336 -3.172339 2.494213
H 1.181534 -4.550537 1.979937
H 1.814226 -0.085672 4.765266
H 0.472614 -5.063326 -0.307422
C -0.256698 2.969955 0.574990
C 1.396878 0.261982 4.009527
H -1.069098 -2.216292 -4.464723
C 1.008115 1.533401 3.836524
C -1.487589 2.756396 -4.988673
C 0.481380 1.648871 2.518568
C -2.182026 3.537375 -5.910316
C 0.091283 2.848276 1.918133
C -3.342597 4.178051 -5.555664
H -1.928568 -4.375469 -3.218189
C -3.832362 4.038990 -4.283402
H -1.631279 -6.348403 -4.404438
C -3.148407 3.265461 -3.353868
C -1.962108 2.627268 -3.693418
H 0.493576 -7.247336 -4.648197
C -1.244231 1.827665 -2.641908
H 2.321142 -6.174576 -3.705707
H 2.025759 -4.201642 -2.519980
C -0.863854 2.515522 -1.485691
H -2.740396 -2.068539 0.293539
C -0.924646 3.935935 -1.331627
C -0.019057 4.093621 2.751425
H -3.878099 -1.004471 0.114148
C -0.540456 4.216542 -0.072129
C 1.076720 4.736780 3.316671
H -2.805190 -1.201888 -1.012750
C 0.899490 5.917561 4.027194
C -1.058044 0.464366 -2.826187
C -0.373517 6.456424 4.172471
C -1.469294 5.813265 3.607225
C -1.292064 4.632484 2.896702
C 2.955740 1.204371 0.062987
C 1.487589 -2.756396 4.988673
C 2.182026 -3.537375 5.910316
N 0.503676 0.409735 1.905468
C 3.342597 -4.178051 5.555664
O 2.162779 0.258257 -0.525336
C 3.832362 -4.038990 4.283402
C 3.148407 -3.265461 3.353868
C 1.962108 -2.627268 3.693418
C 1.244231 -1.827665 2.641908
C 0.863854 -2.515522 1.485691
C 0.924646 -3.935935 1.331627
C 0.540456 -4.216542 0.072129
C 1.058044 -0.464366 2.826187
N -0.401912 1.934444 -0.323264
Mn 0.000000 -0.000000 -0.000000
C 0.256698 -2.969955 -0.574990
C -1.396878 -0.261982 -4.009527
C -1.008115 -1.533401 -3.836524
C -0.481380 -1.648871 -2.518568
C -0.091283 -2.848276 -1.918133
C 0.019057 -4.093621 -2.751425
C -1.076720 -4.736780 -3.316671
C -0.899490 -5.917561 -4.027194
C 0.373517 -6.456424 -4.172471
C 1.469294 -5.813265 -3.607225
N 0.401912 -1.934444 0.323264
C 1.292064 -4.632484 -2.896702
C -2.955740 -1.204371 -0.062987
H -0.472614 5.063326 0.307422
H 1.069098 2.216292 4.464723
H 1.928568 4.375469 3.218189
H 1.631279 6.348403 4.404438
N -0.503676 -0.409735 -1.905468
H -0.705109 2.320588 -5.242345
H -0.493576 7.247336 4.648197
O -2.162779 -0.258257 0.525336
H -1.854246 3.624289 -6.776872
H -2.321142 6.174576 3.705707
H -3.794248 4.704498 -6.175090
H -2.025759 4.201642 2.519980
H -4.623228 4.464866 -4.042044
H 2.740396 2.068539 -0.293539
H -3.489336 3.172339 -2.494213
H 3.878099 1.004471 -0.114148
H -1.181534 4.550537 -1.979937
H 2.805190 1.201888 1.012750
H -1.814226 0.085672 -4.765266