140
Fe1 H48 C75 N6 O10
Fe -0.599853 0.071093 0.319096
C -3.409672 2.018783 -4.306598
C -8.184356 1.007309 -2.418099
N 3.091064 -1.860040 3.816074
O -1.428140 -8.436128 -2.555011
H -3.907377 -1.040189 -3.459292
H -2.939791 -3.236744 -2.791291
C -1.174217 2.822544 -5.033863
H -0.286437 -4.907723 1.438610
H 0.402410 -3.828667 3.553786
O 5.125562 -0.374437 -2.994528
H -0.064745 -4.189622 -2.593246
O 0.844703 -0.270580 -0.937413
H -0.001389 -6.370026 -3.441911
H -2.639788 -7.515250 -0.604014
O 4.466609 -3.600016 3.866549
H -2.647546 -5.372745 0.290206
H -0.480525 -9.853787 -3.592629
C -1.049592 1.469396 7.853431
H -0.167218 -8.370367 -4.100713
C 0.198213 2.398086 -4.773485
H 2.620621 -8.877955 -1.337549
C 1.190537 3.259043 -5.189672
C 2.533368 2.920380 -5.032184
O 0.068915 -1.700492 8.371377
C 2.872970 1.695172 -4.449947
C 1.889993 0.823678 -4.027408
C 0.558066 1.187929 -4.187650
H 6.370781 -3.241289 2.185302
H 6.992175 -3.456062 -0.034961
H 5.530857 -2.941098 -1.770921
H -7.133178 -2.521020 -2.213639
H -0.719695 -1.091560 5.903740
H 3.699653 -2.623823 6.126278
N -1.465527 1.871277 -0.184581
H -1.766932 -1.560315 7.662298
N -0.052595 0.966669 2.073089
N -2.085535 1.902885 -4.661372
H -1.367510 5.047622 -0.554613
H -2.951069 3.964200 -2.112386
O 1.442902 8.576809 2.665144
H 2.848372 -0.988727 -4.096891
O -7.508267 1.937504 -3.736100
H 1.416995 -1.072038 -3.402546
H 2.969570 -1.116531 3.351153
O -1.446833 3.799399 -5.833423
H 2.438248 -2.466608 8.041949
H 1.218780 1.208851 5.017592
O 4.722089 0.873349 -1.347480
H 1.063700 3.397745 3.863808
H -1.651078 -1.258258 9.231356
O 2.427437 1.111166 -0.390337
H 2.746507 -1.963656 0.990945
H 2.123322 -2.396257 -1.420189
H 3.300480 -2.584042 -2.483748
H 2.233116 4.391353 1.393135
H 2.945704 6.544679 1.832923
C -2.746046 -0.226930 -1.886102
H -0.848354 7.640533 2.604453
C -3.292837 -1.196260 -2.750305
H -1.596788 5.502951 2.097594
C -2.772529 -2.397386 -2.379260
H 2.861520 9.972192 2.550632
C -1.937543 -2.158063 -1.264298
H 3.409931 8.479876 2.363062
C -1.314420 -3.162012 -0.518124
H 2.442719 9.539741 -1.367665
C -0.748935 -2.943762 0.739260
H -5.617960 1.310059 -2.013287
C -0.301844 -3.976309 1.626321
H -6.232562 2.758770 -5.721690
C 0.093839 -3.389293 2.769464
H -3.982183 2.754796 -6.148286
H -7.928128 1.493961 -1.595144
C -0.040132 -1.974433 2.581406
C 0.371129 -1.012629 3.490006
H -9.166041 1.109992 -2.501107
C 0.392939 0.367612 3.234428
C -1.339345 -4.548273 -1.054952
C -0.577576 -4.868875 -2.172697
H -0.978167 2.399260 7.675184
C -0.547978 -6.161816 -2.694252
H -1.778226 1.075252 -4.642100
C -1.329998 -7.135661 -2.095926
H 0.957676 4.090544 -5.587080
C -2.105786 -6.837637 -0.999617
H 3.214380 3.517692 -5.319350
C -2.113576 -5.564263 -0.471954
H 3.786890 1.462156 -4.341517
H -0.122696 0.594727 -3.893925
C -0.290939 -8.929823 -3.293583
C 0.897669 -8.926813 -2.551115
C 1.844817 -8.899720 -1.884168
C -1.002858 3.105516 0.235003
C -1.558996 4.118495 -0.600409
C -2.404886 3.528469 -1.467195
C -2.323880 2.113609 -1.232068
C -2.968813 1.160836 -2.006715
C -7.955358 -0.490335 -2.098366
C -7.489574 -1.641790 -2.163733
C 0.959981 -1.456654 4.798705
C 0.182635 -1.385911 5.950881
C 5.751801 -3.022031 1.497244
C 0.743446 -1.751668 7.179820
C 6.117886 -3.148465 0.170410
C 5.254860 -2.844421 -0.866312
C 2.056679 -2.209239 7.211181
C 0.885206 1.361024 4.140866
C 2.809100 -2.298044 6.083017
C 0.787064 2.557634 3.515068
C 2.263867 -1.905195 4.858566
C 0.193539 2.325838 2.238917
C -1.214720 -1.117991 8.354033
C -0.185008 3.325271 1.338319
C -1.138387 0.322457 8.070453
C 4.050674 -2.606604 3.280356
C 2.248289 -0.536995 -3.452797
C 2.935283 -0.585161 -2.040512
C 0.249620 4.723574 1.647939
C 4.345100 -0.064372 -2.155531
C 1.594009 5.057721 1.617989
C 2.013060 0.164414 -1.032107
C 2.023965 6.326580 1.901487
C 4.488418 -2.578006 1.825056
C 1.111089 7.285373 2.285990
C -0.223954 6.972298 2.347270
C -0.671045 5.709460 2.042250
C 2.668897 9.096093 2.133592
C 3.985246 -2.395880 -0.560161
C 2.612816 9.252630 0.710079
C 3.620718 -2.270951 0.780801
C 2.519348 9.410673 -0.430978
C -3.920634 1.601851 -3.073870
C 3.025636 -2.079795 -1.677047
N -0.571345 -1.714038 1.327855
C -5.275927 1.589810 -2.853542
N -1.920407 -0.816957 -0.958727
C -6.154531 1.984164 -3.863094
C -5.635781 2.441736 -5.054223
C -4.308528 2.455283 -5.308131