104
Yb1 H43 C52 N6 O2
C 2.556149 -1.456269 2.511881
C 2.775382 -1.566905 1.133780
H -7.960250 -0.554670 -5.364453
H -8.454089 -1.626351 -4.332993
C 3.965342 -2.096966 0.530420
H -7.611059 -2.067243 -5.578028
C 3.744979 -2.204299 -0.801393
H -6.360075 -3.066267 -3.415899
C 2.426192 -1.717171 -1.042290
C 1.810305 -1.690751 -2.286725
H -6.099030 0.713513 -4.652012
C 0.485867 -1.362146 -2.576343
H -4.823185 -4.047127 -2.003215
C -0.144710 -1.628002 -3.840503
H -4.221990 -3.087734 -0.920591
H -3.360879 -3.505508 -2.161620
H -4.376809 2.113798 -4.023655
H -3.006038 1.390538 -3.783510
C 1.094973 3.299417 3.166226
H -3.844547 1.907388 -2.564599
H -5.230009 -0.427522 -0.148066
C 3.752890 -1.758453 3.375457
C 7.488890 -2.641888 5.326483
H -4.857087 -0.313583 2.266737
C 4.564278 -0.724752 3.829746
H -2.732562 -0.392845 3.809640
C 5.762148 -1.046752 4.476244
C 6.156541 -2.349612 4.686029
C 5.313512 -3.358544 4.298356
C 4.086259 -3.091036 3.648576
C 3.166385 -4.220512 3.268416
C 4.181185 0.728374 3.655403
H -2.123456 -1.438105 -4.328398
C 2.785553 1.301369 -1.543275
C 3.528007 1.900783 -2.572602
C 2.892909 2.762751 -3.417961
C 1.534569 3.073192 -3.235226
C 0.826018 4.088729 -3.977703
C -0.413665 4.455313 -3.639826
C 0.867830 2.411029 -2.177172
C -0.483730 2.777613 -1.860535
C -1.200192 3.892227 -2.519836
C 0.684759 2.262414 2.166935
N 1.839687 -1.292792 0.138753
N 0.160408 -0.863460 2.413449
N -0.435137 -0.893183 -1.662148
N 1.482586 1.509430 -1.366676
N -1.081535 2.163337 -0.809488
O 1.604633 1.659696 1.507277
H -2.648937 2.219480 0.352852
O -0.516502 1.971788 1.983600
H -3.669387 4.024329 -0.542702
H -3.126955 4.911067 -2.558971
C -7.738757 -1.377008 -4.921402
C -6.462911 -1.197018 -4.122319
C -5.931780 -2.240627 -3.394293
C -5.778091 0.011719 -4.132672
Yb 0.090118 0.264695 0.339097
C -4.606212 0.195011 -3.370837
C -4.124804 -0.865111 -2.593119
C -4.771202 -2.101920 -2.623983
C -4.246851 -3.294144 -1.856770
C -3.893140 1.522640 -3.442421
C -2.904332 -0.701634 -1.723316
C -3.108874 -0.506783 -0.348741
H -0.734604 -0.886577 5.484667
C -4.406190 -0.432475 0.282174
C -4.202778 -0.371378 1.609908
C -2.772114 -0.411009 1.822960
C -2.170919 -0.503480 3.076088
H 1.654356 -1.347285 5.204807
H 4.749608 -2.326494 0.973532
H 4.338264 -2.532904 -1.438806
H 2.344827 -1.918627 -3.013370
H 0.270025 -1.926884 -4.616298
H 2.051010 3.385284 3.164306
H 0.797766 3.036864 4.040400
C -1.463497 -1.357192 -3.678389
H 0.698320 4.141570 2.933335
C -1.661259 -0.926208 -2.319750
H 6.311360 -0.356517 4.776849
H 7.935266 -1.816248 5.527766
H 5.554216 -4.241978 4.468917
H 3.558518 -5.054408 3.532598
H 7.352152 -3.137272 6.138693
H 3.031907 -4.217209 2.318603
H 2.322226 -4.108225 3.712670
H 4.864875 1.286507 4.032632
H 3.349456 0.895154 4.101442
H 4.087389 0.923225 2.721063
H 8.027931 -3.158739 4.723551
H 3.226279 0.728374 -0.959286
H 4.433190 1.715840 -2.672012
H 3.363017 3.147500 -4.122390
H 1.239622 4.494944 -4.704340
H -0.815969 5.119128 -4.151362
C -2.251154 2.628998 -0.380521
C -2.914503 3.705632 -0.981227
C -2.585653 4.311652 -2.097688
N -2.120066 -0.455593 0.619887
C -0.827270 -0.739614 3.361890
C -0.271277 -0.931162 4.679920
C 1.040730 -1.185459 4.525991
C 1.317596 -1.162341 3.100275