101
Cu1 H36 C60 N4
H -0.895717 -1.786822 6.184043
H 4.303266 -5.890416 1.158990
H 5.909076 -2.347997 1.692825
H 0.584806 3.263755 -5.979049
C -0.316369 6.227462 -6.692872
C 3.330705 -2.471924 0.167605
C 4.286142 -2.288372 -0.900979
C 3.832112 -1.282933 -1.662574
C 2.602176 -0.821133 -1.092608
C 1.902429 0.294203 -1.550179
C 0.177626 4.953126 -6.967784
C 0.616396 0.619217 -1.119793
C -0.183142 1.700648 -1.647837
C -1.414560 1.623487 -1.027968
C -1.355390 0.490614 -0.129828
C -2.421415 0.055703 0.657262
C -2.299079 -0.909986 1.662539
C -3.365746 -1.286441 2.554752
C -2.837369 -2.110667 3.480377
C -1.446339 -2.286034 3.146772
C -0.565899 -3.088047 3.876552
C 0.726175 -3.394355 3.451630
C 1.615481 -4.287559 4.140015
C 2.745372 -4.381088 3.403163
C 2.565718 -3.525296 2.250710
C 3.522504 -3.338238 1.249740
H 4.623350 3.509269 -4.774233
C 2.641006 1.203774 -2.493588
H 4.701102 3.591107 -2.407059
C 2.582788 1.070495 -3.870892
C 3.296239 1.929795 -4.688327
C 4.087121 2.921204 -4.140023
C 4.183122 3.047469 -2.771058
C 3.465173 2.197522 -1.965836
C -1.037228 -3.603627 5.206395
C 4.861418 -3.991773 1.376781
C 5.033613 -5.368991 1.268706
H -0.680386 5.987793 -3.396948
C 5.994016 -3.194437 1.585379
C 0.090279 2.627757 -2.688841
C -2.458147 2.557610 -1.271215
N 2.277216 -1.602920 -0.001469
N -0.107541 -0.083655 -0.180773
N -1.131352 -1.565041 2.013370
N 1.322617 -2.930567 2.293805
H -4.339876 -0.968442 2.525055
H -1.572349 -2.523365 8.225597
H -2.271484 -4.791448 8.644138
H -2.012442 -6.258594 6.799239
H -1.330771 -5.563064 4.704702
H -4.238345 -0.313737 -1.289357
H -6.227728 0.528026 -1.479708
H -7.170362 2.106331 -0.106956
C 0.075379 3.436784 -3.582166
H -5.819677 2.761036 1.725776
C -0.002170 4.389613 -4.658135
H -3.785956 1.884199 2.044888
C 0.358500 4.007312 -5.905760
C -0.615546 6.571182 -5.461765
C -0.456840 5.684992 -4.409389
H 6.374897 -6.849090 1.226997
H 8.224863 -5.527990 1.535114
H 8.039825 -3.213143 1.892857
C -1.159822 -2.719776 6.260063
C -1.608788 -3.144165 7.504736
C -1.912928 -4.475787 7.707293
C -1.800936 -5.363145 6.666927
C -1.374203 -4.936418 5.421728
C -3.779413 0.656628 0.440487
C -4.547543 0.268482 -0.642917
C -5.810249 0.807444 -0.842317
C -6.303797 1.746244 0.037017
C -5.540937 2.150758 1.122484
C -4.283435 1.601273 1.324000
H -0.936758 7.425805 -5.204045
H -2.968583 4.760222 -3.772723
H -4.265793 6.367171 -4.768449
H -6.065314 7.207110 -3.653394
H -6.712172 6.303454 -1.547071
H -5.370505 4.619929 -0.584838
C 6.306665 -5.923151 1.326254
C 7.406299 -5.136337 1.515051
C 7.242328 -3.749766 1.661569
H -0.434921 6.837401 -7.384526
H 0.389823 4.716486 -7.841721
C -3.223438 3.427431 -1.612202
C -4.054398 4.463267 -2.145719
C -3.731952 5.012751 -3.413836
C -4.491073 6.015852 -3.937023
C -5.568977 6.515064 -3.280857
C -5.916740 5.995977 -2.070034
Cu 0.586626 -1.543880 1.033881
C -5.164752 4.968325 -1.477733
H 5.042247 -2.827335 -0.994380
H 4.177367 -0.956750 -2.456473
H -3.284151 -2.523365 4.208437
H 1.446014 -4.721956 4.944611
H 3.494155 -4.895733 3.599851
H 2.049836 0.457879 -4.217132
H 3.243424 1.839598 -5.612104
H 3.547037 2.305081 -1.083371