292
Zn2 H150 C130 N8 O2
H 0.351168 9.125567 5.106965
H -1.681265 5.729230 1.484757
C -6.959868 -8.495018 -10.009046
H -1.115544 3.420000 0.796442
C -6.919345 -6.990329 -10.317638
H 5.220044 0.114139 5.799509
C -8.441879 -8.908424 -9.952241
C -4.844822 7.935457 3.272734
C -6.242952 -9.267545 -11.133007
H 7.921899 2.614066 4.139320
C -5.112805 6.517069 2.796088
C -5.840548 8.873626 2.568045
H -4.971869 1.350183 -7.330153
C -5.075461 8.067692 4.801074
C -8.753220 -0.896410 -4.842565
H -5.286441 2.391355 -5.043467
C -7.723468 -1.792820 -4.574098
C -10.207251 -1.197070 -4.478673
C -10.686552 -0.206007 -3.450021
C 7.112892 -0.638483 5.833593
C -11.079038 -1.099634 -5.745544
C 8.422750 -0.309011 5.464410
C -10.396351 -2.626593 -3.963621
C 6.959868 8.495018 10.009046
C 6.919345 6.990329 10.317638
C 8.441879 8.908424 9.952241
C 6.746167 -1.989084 6.468728
C 6.242952 9.267545 11.133007
C 6.067877 -2.861831 5.401644
H 5.311207 7.043223 8.407762
C 7.970539 -2.739340 6.984854
H 6.949107 10.726300 8.541484
H 4.836737 9.590476 5.293177
Zn -2.840511 -4.798857 -3.786388
H -3.475532 -5.530183 -1.146196
H 8.040431 11.447325 5.568632
H -2.816663 -0.019487 -1.848517
H 8.021694 11.998534 7.071842
H -4.885392 -0.083516 -3.216219
H 7.757102 12.996556 5.849439
H -7.243834 -3.737362 -6.284491
H 4.512059 12.651355 7.288860
H -6.786124 -6.089743 -6.851321
H 5.633066 13.724541 6.898461
H -2.458400 -9.228571 -6.417910
H 5.876655 12.722344 8.123024
H -0.351168 -9.125567 -5.106965
H 5.914953 11.303955 4.270060
H 1.681265 -5.729230 -1.484757
H 5.702948 12.865714 4.551105
H 1.115544 -3.420000 -0.796442
H 4.548799 11.821758 4.923270
H -5.220044 -0.114139 -5.799509
H 0.189209 9.317655 2.422867
H -7.921899 -2.614066 -4.139320
H -2.552166 6.642344 3.729370
H 4.971869 -1.350183 7.330153
H 0.537653 10.916996 0.854542
H 0.537266 11.501611 2.343249
H 5.286441 -2.391355 5.043467
H 0.287696 12.477362 1.100407
H -1.822449 13.277728 1.983469
H -1.565377 12.393845 3.292976
C 4.844822 -7.935457 -3.272734
C 5.112805 -6.517069 -2.796088
H -1.517201 10.646959 -0.375617
C 5.840548 -8.873626 -2.568045
H -1.734741 12.226812 -0.247647
C 5.075461 -8.067692 -4.801074
H -4.498271 5.900439 3.245001
H -5.311207 -7.043223 -8.407762
H 5.223118 6.723077 1.244780
H -6.949107 -10.726300 -8.541484
H 5.644764 5.285201 1.807955
H -4.836737 -9.590476 -5.293177
H 5.361286 6.490622 2.822744
C 2.449673 1.997575 2.588165
C 3.111634 0.738286 2.394648
C 4.238749 0.775451 3.139667
H -8.040431 -11.447325 -5.568632
C 4.278319 2.049912 3.792305
H -8.021694 -11.998534 -7.071842
C 5.313926 2.488234 4.621827
H -7.757102 -12.996556 -5.849439
C 5.406327 3.781209 5.182439
H -4.512059 -12.651355 -7.288860
C 6.487359 4.244029 6.013641
H -5.633066 -13.724541 -6.898461
C 6.231415 5.517655 6.334649
H -5.876655 -12.722344 -8.123024
C 4.956656 5.865362 5.750947
H -5.914953 -11.303955 -4.270060
C 4.271224 7.085120 5.946273
H -5.702948 -12.865714 -4.551105
C 2.987810 7.384945 5.447177
H -4.548799 -11.821758 -4.923270
C 2.209019 8.549164 5.801806
H -0.189209 -9.317655 -2.422867
C 1.056789 8.489868 5.089259
C 1.100669 7.284864 4.301803
H 2.552166 -6.642344 -3.729370
C 0.088931 6.870483 3.411463
H -0.537653 -10.916996 -0.854542
C 0.055784 5.631934 2.740076
H -0.537266 -11.501611 -2.343249
C -0.941478 5.215186 1.788044
H -0.287696 -12.477362 -1.100407
C -0.629823 3.960351 1.409839
C 0.567092 3.591069 2.104863
H 1.822449 -13.277728 -1.983469
C 1.234142 2.362403 1.966544
H 1.565377 -12.393845 -3.292976
C 0.657135 1.381502 1.106604
C 0.233527 0.504300 0.401452
H 1.517201 -10.646959 0.375617
C 6.410271 1.508864 4.930540
H 1.734741 -12.226812 0.247647
C 6.117060 0.303026 5.555750
H 4.498271 -5.900439 -3.245001
C -5.788605 1.790037 -7.645290
H -6.218258 1.233260 -8.325928
H -5.561263 2.661392 -8.030915
H -5.223118 -6.723077 -1.244780
H -5.644764 -5.285201 -1.807955
H -5.361286 -6.490622 -2.822744
C 4.983815 8.144945 6.729215
C 5.498237 7.878109 7.995628
C 6.284333 8.815164 8.671277
C 6.445318 10.066520 8.078450
C 5.900434 10.394878 6.838760
C 5.187073 9.405347 6.157035
C -2.449673 -1.997575 -2.588165
C -3.111634 -0.738286 -2.394648
C -4.238749 -0.775451 -3.139667
C -4.278319 -2.049912 -3.792305
C -5.313926 -2.488234 -4.621827
C 6.118571 11.795311 6.268218
C -5.406327 -3.781209 -5.182439
C 7.619611 12.084834 6.182141
C -6.487359 -4.244029 -6.013641
C 5.476388 12.816996 7.232412
C -6.231415 -5.517655 -6.334649
C 5.517382 11.962344 4.879537
C -4.956656 -5.865362 -5.750947
C -1.022649 7.823128 3.113529
C -4.271224 -7.085120 -5.946273
C -0.719026 9.070586 2.555140
C -2.987810 -7.384945 -5.447177
C -1.727731 9.949596 2.194027
C -2.209019 -8.549164 -5.801806
H -9.116383 0.932601 -5.644993
C -1.056789 -8.489868 -5.089259
C -3.393730 8.340512 2.974963
C -1.100669 -7.284864 -4.301803
C -2.348984 7.479597 3.330676
C -0.088931 -6.870483 -3.411463
C -3.048223 9.559853 2.404830
C -0.055784 -5.631934 -2.740076
C -1.416808 11.313699 1.556670
C 0.941478 -5.215186 -1.788044
C -1.989984 12.410549 2.410072
H -5.783617 3.708132 -5.804841
C 0.629823 -3.960351 -1.409839
H -6.701683 3.041392 -4.676013
C -0.567092 -3.591069 -2.104863
H -8.443154 2.182564 -7.638078
C -1.234142 -2.362403 -1.966544
H -8.568941 2.942564 -6.235302
C -0.657135 -1.381502 -1.106604
H -7.686391 3.574505 -7.411392
C -0.233527 -0.504300 -0.401452
C -6.410271 -1.508864 -4.930540
C 5.095764 6.080000 1.974148
H -10.637121 0.700146 -3.819977
C -6.117060 -0.303026 -5.555750
N 3.168567 2.792234 3.433370
N 4.482228 4.789809 5.034305
N 2.268979 6.612139 4.553818
N 0.986332 4.622080 2.901678
C 5.788605 -1.790037 7.645290
O 3.724693 5.702923 2.038079
H 10.119963 0.264469 2.652058
H 11.614011 0.409231 3.207130
H 11.037174 0.187912 6.099276
H 10.745951 1.727399 6.419238
C -4.983815 -8.144945 -6.729215
H 12.007039 1.322344 5.520214
C -5.498237 -7.878109 -7.995628
H 9.935001 2.728205 3.105133
C -6.284333 -8.815164 -8.671277
H 11.352691 2.807546 3.843780
C -6.445318 -10.066520 -8.078450
H 10.023821 3.259927 4.610644
C -5.900434 -10.394878 -6.838760
C -5.187073 -9.405347 -6.157035
C -6.118571 -11.795311 -6.268218
C -7.619611 -12.084834 -6.182141
C -5.476388 -12.816996 -7.232412
C -5.517382 -11.962344 -4.879537
C 1.022649 -7.823128 -3.113529
C 0.719026 -9.070586 -2.555140
H -7.365174 -6.497582 -9.597060
C 1.727731 -9.949596 -2.194027
H -3.743361 10.154212 2.147268
H -5.987689 -6.696630 -10.388038
C 3.048223 -9.559853 -2.404830
H -7.381731 -6.819120 -11.164470
C 3.393730 -8.340512 -2.974963
H -8.505941 -9.874432 -9.804241
C 2.348984 -7.479597 -3.330676
H -8.884092 -8.435164 -9.216943
C 1.416808 -11.313699 -1.556670
H -8.877160 -8.677362 -10.798412
H -6.295713 -10.229377 -10.952159
C -0.132300 -11.576776 -1.454211
H -6.674411 -9.069890 -11.989606
C 1.989984 -12.410549 -2.410072
H -5.303523 -8.993333 -11.169260
C 1.940761 -11.356849 -0.151686
H -2.910833 11.223223 0.160545
H -2.955898 12.276922 2.510663
H 9.116383 -0.932601 5.644993
H -10.119963 -0.264469 -2.652058
C -5.095764 -6.080000 -1.974148
H -4.975411 6.466959 1.826631
H -11.614011 -0.409231 -3.207130
H -6.037404 6.270696 3.008500
H -11.037174 -0.187912 -6.099276
H -5.750934 8.774798 1.598044
H -10.745951 -1.727399 -6.419238
H -5.651453 9.800659 2.821571
N -3.168567 -2.792234 -3.433370
H -6.754267 8.641172 2.836521
H -12.007039 -1.322344 -5.520214
H -4.511472 7.420439 5.273211
N -4.482228 -4.789809 -5.034305
H -9.935001 -2.728205 -3.105133
N -2.268979 -6.612139 -4.553818
H -11.352691 -2.807546 -3.843780
N -0.986332 -4.622080 -2.901678
H -10.023821 -3.259927 -4.610644
H 6.701683 -3.041392 4.676013
H 8.443154 -2.182564 7.638078
O -3.724693 -5.702923 -2.038079
H 8.568941 -2.942564 6.235302
H 7.686391 -3.574505 7.411392
H 10.637121 -0.700146 3.819977
H -6.018261 7.889523 5.005153
H 6.295713 10.229377 10.952159
H 6.674411 9.069890 11.989606
H -4.843945 8.975238 5.089964
H 5.303523 8.993333 11.169260
H 6.218258 -1.233260 8.325928
H 5.561263 -2.661392 8.030915
C 0.132300 11.576776 1.454211
H 3.743361 -10.154212 -2.147268
H 7.365174 6.497582 9.597060
C -7.112892 0.638483 -5.833593
C -8.422750 0.309011 -5.464410
H 2.955898 -12.276922 -2.510663
C -6.746167 1.989084 -6.468728
C -1.940761 11.356849 0.151686
H 5.987689 6.696630 10.388038
C -6.067877 2.861831 -5.401644
H 2.910833 -11.223223 -0.160545
C -7.970539 2.739340 -6.984854
H 7.381731 6.819120 11.164470
H 4.975411 -6.466959 -1.826631
H 6.037404 -6.270696 -3.008500
C 8.753220 0.896410 4.842565
H 5.750934 -8.774798 -1.598044
C 7.723468 1.792820 4.574098
H 5.651453 -9.800659 -2.821571
H 6.754267 -8.641172 -2.836521
H 8.505941 9.874432 9.804241
H 4.511472 -7.420439 -5.273211
H 6.018261 -7.889523 -5.005153
H 4.843945 -8.975238 -5.089964
C 10.207251 1.197070 4.478673
C 10.686552 0.206007 3.450021
C 11.079038 1.099634 5.745544
H 8.884092 8.435164 9.216943
C 10.396351 2.626593 3.963621
H 5.783617 -3.708132 5.804841
H 8.877160 8.677362 10.798412
Zn 2.840511 4.798857 3.786388
H 3.475532 5.530183 1.146196
H 2.816663 0.019487 1.848517
H 4.885392 0.083516 3.216219
H 7.243834 3.737362 6.284491
H 6.786124 6.089743 6.851321
H 2.458400 9.228571 6.417910