11
H5 C5 N1
H 2.278279 0.278347 0.441372
N 0.535908 1.274427 0.081258
C 0.814953 -1.115143 0.181060
C 1.352134 0.164070 0.261547
H -1.376560 1.862866 -0.303421
H -2.282686 -0.289624 -0.442591
H -0.907759 -2.158981 -0.138694
C -0.819000 1.105571 -0.180834
C -1.356181 -0.173642 -0.262701
C -0.539955 -1.283999 -0.082182
H 1.372153 -1.874143 0.304502