250
Zn2 H112 C126 N10
C -0.318476 -0.304137 3.695864
C -0.355916 -0.751691 5.026904
C -0.448999 -0.702057 0.176407
C -2.782365 -5.477787 3.697622
C -3.658422 -6.599061 3.320188
C -3.812960 -6.520602 1.930191
C -3.002403 -5.375450 1.488506
C -2.744807 -5.001238 0.163182
C -3.191339 -9.192794 9.164442
C -2.049626 -3.848069 -0.243456
C -1.914572 -9.266135 10.006700
C -1.700231 -3.543787 -1.609480
C -4.354249 -8.843142 10.096791
C -1.056274 -2.355995 -1.598829
C -3.468501 -10.555583 8.529662
C -1.000583 -1.914410 -0.236718
C -3.118566 4.483533 -3.566766
C -0.748476 -2.007025 5.466661
C -0.328311 -0.286739 1.509402
C 3.418904 6.188469 -5.703250
C -0.524308 -2.573291 6.800796
C 3.930693 7.205188 -4.900872
C 0.117474 -2.085484 7.957198
C 4.564813 8.296612 -5.484938
C 0.217156 -2.914414 9.051111
C 4.730859 8.400655 -6.852256
C -0.258667 -4.215801 9.015528
C 4.211242 7.382401 -7.642167
C -0.883458 -4.715547 7.895335
C 3.562797 6.294217 -7.077605
C -1.029307 -3.884911 6.770330
H -5.966955 -8.925012 1.540621
C 5.755294 0.318243 -2.799958
H -4.806466 -7.316614 0.320762
C -1.599510 -4.076281 5.429051
C 6.657668 1.054388 -2.038563
C -2.314554 -5.202671 4.994254
C -3.683892 5.324914 -2.616683
C 7.936599 0.607346 -1.810154
C -4.971461 5.823466 -2.782257
C 8.387548 -0.612342 -2.335716
C -5.730891 5.489336 -3.891094
C 7.480906 -1.345246 -3.092733
C -5.170052 4.612478 -4.823976
C 6.179703 -0.904173 -3.304964
C -3.886266 4.117337 -4.666592
H 5.278832 11.586749 -7.558227
H 3.884004 10.802165 -7.510793
H 4.760976 10.960788 -6.180072
C 10.805674 0.007309 -2.554281
C -3.170950 -5.910844 -0.948262
C 10.175132 -2.375439 -2.762248
C -4.437296 -6.300066 -2.969050
C -4.091098 -5.484780 -1.903108
H -1.981092 -7.483765 -0.463876
H -2.619421 -8.865315 -2.228816
H -4.253812 -7.649210 4.989043
H -5.647729 -9.126275 3.845570
C 5.487596 9.589471 -7.458282
H 2.037753 4.331051 8.378042
C 9.823062 -1.064160 -2.057496
C 10.003798 -1.253142 -0.542421
C 0.153620 0.218806 6.059901
C 1.521971 0.437125 6.228313
C 1.988902 1.220004 7.276400
C 1.113235 1.799914 8.187444
C -7.132136 6.053725 -4.139505
C -0.239031 1.629352 7.974830
C -7.594855 6.947469 -2.976810
C -0.719110 0.848179 6.910129
C -8.138322 4.899022 -4.242064
C -2.585769 -6.238664 6.036027
C -7.127534 6.843426 -5.451417
C -3.587287 -6.062985 6.974844
C 3.205527 4.559035 -1.245630
C 3.612239 5.376595 -0.203892
C 2.779239 5.547156 0.867415
C 1.554954 4.909255 0.874762
H -4.506219 -6.861214 8.601400
C 1.216799 4.117849 -0.214546
H -1.484139 -9.104102 7.137928
C -4.513585 -1.734127 1.664784
H -1.133695 -7.543461 5.448349
C -3.807820 -7.001075 7.972478
C -4.461033 -1.947329 3.922662
C -3.019158 -8.142474 8.063667
Zn 1.436685 2.661012 -2.945032
Zn -1.787216 -2.767049 2.628312
C -2.025012 -8.324634 7.103747
H 2.081106 -1.635201 -0.137282
C 1.669320 2.557208 9.399601
H 4.283507 -1.283843 -1.226538
C 2.496699 1.585006 10.249285
H 6.849937 1.040914 -4.845958
C 0.553636 3.123473 10.277550
H -4.105746 -10.204225 -3.442428
H 8.276058 2.272370 -6.225908
H -4.150100 -10.321913 -5.037775
C -5.831865 -1.381064 1.676666
H -2.821522 -9.808522 -4.309833
H 7.685396 4.429977 -6.896268
C -6.481030 -1.292372 2.873240
H 5.601737 5.323720 -6.378312
C -5.800325 -1.594266 4.016829
H 1.607441 7.696235 -6.178639
C -1.811923 -7.393367 6.097598
H -0.215474 9.057318 -6.709387
H -6.239345 -8.800502 -3.782907
H -2.380027 8.458646 -6.080538
H -6.127336 -7.473531 -4.669264
H -2.768132 6.492069 -4.890336
C 5.575020 9.463255 -9.074741
H -3.601856 2.570853 -1.840793
C 2.562520 3.717028 8.932043
H -2.665902 0.698085 -0.493959
C 6.966621 9.514424 -6.973894
H 0.527128 1.675404 1.363653
H -6.035756 -8.909661 -5.367807
N 2.079249 0.853808 -2.178410
H 0.505396 1.671992 3.853375
N 3.209954 2.823796 -4.020906
H -3.967753 -8.171129 -6.416523
N 0.629851 4.231102 -4.087422
N -0.451827 2.182654 -2.286826
N 2.026519 3.936541 -1.259692
C 0.221563 0.974395 1.928007
N -0.668044 -1.040111 2.603212
N -1.609013 -2.840049 0.577303
C 0.214479 0.969278 3.282925
N -2.460730 -4.752559 2.590242
H -2.025688 -9.934738 10.713407
H -1.889466 -4.077646 -2.373601
N -3.807644 -2.008902 2.764178
H -0.704781 -1.899572 -2.353704
H -1.158888 -9.518567 9.434722
H -3.183478 5.562507 -1.844470
H -2.701123 -7.737902 -5.539570
H -5.187474 -8.815852 9.583727
H -4.425501 -9.521978 10.800195
H -1.738519 -8.389448 10.410292
H -4.191704 -7.966455 10.504170
H -3.528530 3.522588 -5.314594
H -4.253282 -10.490769 7.947562
H 3.844813 7.153848 -3.955057
H -2.691202 -10.833598 8.001109
H 4.894454 8.990799 -4.925482
H -3.637852 -11.215657 9.234615
H 4.301589 7.433570 -8.585670
H 3.212023 5.613675 -7.640134
H 6.382780 1.885195 -1.667587
H 8.528200 1.134723 -1.285786
H 7.757270 -2.169059 -3.474229
H 5.576432 -1.444172 -3.799401
H -5.336831 6.403377 -2.123982
H -5.680261 4.349813 -5.582164
H 0.474351 -1.205385 7.980375
H 0.619116 -2.588641 9.848071
H -0.151268 -4.773538 9.778946
H 10.753317 0.072123 -3.530933
H -1.211337 -5.607585 7.883259
N -1.369457 -2.955861 4.673540
H 11.717388 -0.238300 -2.290423
H -5.059229 -5.982821 -3.615171
H -4.485975 -4.625149 -1.824239
H 10.059734 -2.267985 -3.729658
H 11.105515 -2.610814 -2.567680
H 10.937122 -1.481695 -0.350647
H 10.572831 0.873763 -2.157443
H -6.976454 7.701352 -2.878314
H -8.494631 7.285181 -3.162129
H 9.584882 -3.088387 -2.440126
H -7.606329 6.423844 -2.147936
H 2.138928 0.046539 5.620520
H -8.186302 4.429977 -3.381509
H 9.769398 -0.422506 -0.078668
H -9.022490 5.253790 -4.469092
H 9.420394 -1.976324 -0.232103
H -7.848710 4.273060 -4.937941
H -1.655943 0.754370 6.778159
H -6.907925 6.241343 -6.192906
H -0.859233 2.047228 8.561270
H -8.014648 7.234013 -5.599843
H 2.922308 1.361570 7.373265
H -6.458879 7.558080 -5.399178
H -4.133383 -5.286929 6.934744
C 4.796229 10.836278 -7.151323
H -3.974199 -6.772522 -5.638230
C -5.189253 -8.447439 3.367574
H 3.792439 4.438505 -1.983862
C -5.368468 -8.336574 1.985188
H 3.311970 3.363965 8.407589
H 4.457124 5.809822 -0.233615
C -4.685789 -7.384839 1.260121
H 3.041114 6.098071 1.597319
H 2.908691 4.198013 9.712852
H 0.957838 5.009887 1.607970
H 1.919298 0.861824 10.574298
H 0.370773 3.686327 -0.216198
H 3.218235 1.206359 9.703192
H -4.073345 -1.788706 0.824887
H 2.881173 2.062579 11.012229
H -0.032349 2.395174 10.572332
H 0.945558 3.565228 11.060351
H 0.030427 3.773314 9.764020
H -6.288988 -1.200268 0.864094
H -7.391425 -1.026295 2.910597
H 6.014020 8.620680 -9.312641
C -4.355338 -7.582690 4.046961
H 4.672095 9.480311 -9.453135
H 6.093644 10.213727 -9.433950
H 7.497499 10.194965 -7.438756
H 7.001184 9.678163 -6.007421
H 7.329862 8.625797 -7.169604
C 1.419397 0.064959 -1.264150
C 2.299443 -0.956365 -0.765923
C 3.496326 -0.768235 -1.361979
H -3.989799 -2.153709 4.721028
C 3.354600 0.366342 -2.246858
C 4.387716 0.885703 -3.046467
C 4.288992 1.969452 -3.924951
C 5.364232 2.456577 -4.782175
C -2.619545 -7.173683 -1.094967
C 6.598723 1.905662 -5.149312
C -2.993767 -7.993744 -2.158530
C 7.442437 2.639078 -5.957121
C -3.901476 -7.565634 -3.115596
C 7.073093 3.918291 -6.380537
C 5.842085 4.457267 -6.068372
C 4.947811 3.704748 -5.282833
C 3.572743 3.895436 -4.801360
C 2.753094 5.010910 -5.056459
C 1.377623 5.149918 -4.758885
H -6.233599 -1.563565 4.860836
C 0.504989 6.249018 -5.209038
C 0.728893 7.444827 -5.918569
C -0.355969 8.249537 -6.229533
C -1.651424 7.893063 -5.851913
C -1.885212 6.728638 -5.148455
C -0.802533 5.899366 -4.821853
C -0.689310 4.636868 -4.082489
C -1.722838 3.978329 -3.415222
C -1.599449 2.863537 -2.560933
C -2.695277 2.286697 -1.821026
C -2.186990 1.260427 -1.091006
C -0.794368 1.188450 -1.394375
C 0.091988 0.225458 -0.875473
C -4.295220 -8.392859 -4.372797
C -3.800510 -9.803405 -4.282259
C -5.809958 -8.394565 -4.564479
C -3.678853 -7.705495 -5.602062