68
Ni1 H24 C38 N4 O1
C -3.177252 0.816486 2.778862
Ni 0.516326 -0.103248 -0.348630
N 1.583448 -1.684427 -0.799466
N -0.600315 -1.215014 0.831439
C 3.388944 -0.614211 -2.111434
C 2.719008 -1.730470 -1.614168
C -2.880071 0.984935 4.128657
C 3.120150 -3.079188 -1.854138
C -3.875159 1.240979 5.065159
H 2.239951 -4.822079 -1.152464
C -4.502125 0.953492 2.394308
H -1.468014 -3.822612 2.550221
C 0.436822 4.568417 -1.988352
H -2.638951 -1.778759 3.299481
C 0.430088 5.706012 -1.161378
C 0.436208 6.982859 -1.718720
C -5.500796 1.228626 3.339918
C 0.470251 7.155800 -3.089554
C 0.490552 6.047403 -3.929764
C 0.471118 4.764941 -3.377413
H 2.209365 -5.114058 1.407404
N 1.693999 1.032101 -1.449250
C 3.547426 1.804723 -2.643637
C 2.921889 0.679480 -2.009135
H 2.174587 -7.385879 1.852043
H -1.679546 -7.568928 0.697699
H 0.225121 -8.639143 1.498609
N -0.601024 1.455471 0.016926
H -1.660549 -5.267908 0.264708
H -3.074992 3.113014 1.295828
H -1.835977 4.415689 -0.404581
H -1.976612 0.924294 4.415770
H -6.400993 1.328572 3.055499
H -4.736987 0.858037 1.479150
H 0.518289 6.161949 -4.872295
C 2.240672 -3.872024 -1.174543
H 0.422353 5.602696 -0.216779
C 1.320239 -3.010686 -0.502980
H -3.645019 1.337556 5.981033
H 0.480580 8.030615 -3.457714
C 0.341195 -3.465499 0.416614
H 0.415961 7.743128 -1.150151
C -0.500456 -2.585070 1.086344
H -5.870657 1.521728 5.321688
C -1.368742 -2.952290 2.182503
H 0.480066 4.010288 -3.952752
C 1.557803 2.368467 -1.765030
C -2.010074 -1.842769 2.590254
C -1.555451 -0.764693 1.736272
C 2.708479 2.849109 -2.508186
O 4.564093 -0.764693 -2.826315
H 3.853596 -3.367798 -2.383762
C -5.189848 1.356647 4.678547
C 0.294189 -4.935501 0.751327
H 4.838693 -1.554159 -2.750326
C 1.410757 -5.604807 1.249404
C 1.392422 -6.961387 1.521809
C 0.237957 -7.707056 1.316442
H 2.842899 3.730662 -2.835532
C -0.883695 -7.070317 0.843821
H 4.391965 1.811461 -3.078457
C -0.868917 -5.692401 0.573593
C -2.099323 0.516646 1.769374
C -1.690937 1.520605 0.890229
C -2.319844 2.817666 0.800744
C -1.634338 3.531891 -0.119147
C -0.541110 2.716596 -0.589437
C 0.468253 3.173655 -1.431561