87
V1 H41 C37 N6 O2
H 0.724619 -3.089457 -3.327320
H 0.524939 -5.122952 -3.028133
H 1.252936 0.886089 -6.416527
H 1.753152 2.073723 -5.524918
H 0.233650 1.953702 -5.887792
H 0.892199 -2.540790 -5.325540
H 0.746338 -1.352013 -6.316123
H 2.883099 -2.292748 -6.544380
H 3.145417 -2.018414 -5.024005
H 2.998891 -0.819350 -6.022098
C 0.449439 1.071264 -3.120822
C 0.805145 0.631187 -4.435527
C 0.866820 -0.733620 -4.370977
C 0.570626 -1.121116 -3.038398
C 0.522910 -2.448203 -2.642405
H -2.106580 5.833231 -3.353344
H 0.236043 5.235413 -4.266990
H -0.199885 3.894610 -4.950676
H 1.298608 4.116362 -4.546149
C 1.031519 1.461045 -5.679894
C 1.201368 -1.654923 -5.527386
C 2.694086 -1.704074 -5.809727
C 0.090500 3.709435 -2.950013
V -0.153612 0.432524 -0.267150
H 0.622645 -7.374770 -2.358515
H 0.380897 -7.952013 -0.108847
H -0.026463 -6.310586 1.485485
H 0.487887 -4.447406 2.705439
C 0.385302 4.287821 -4.300230
H 0.970719 -2.663097 6.186164
H 0.904853 -3.823298 5.156004
H 3.121373 -3.488383 5.730581
H 2.996787 -2.002412 5.247669
H 2.930967 -3.174043 4.207201
H 0.523005 1.094125 5.383592
H 0.274421 -0.110655 6.368567
H 1.651508 0.032226 5.670089
H -1.876819 1.015254 5.286407
H -1.266384 2.424641 5.626757
H -2.724176 2.326338 5.098125
H -0.896712 -1.329152 1.562844
H -0.012184 -2.415054 -0.715193
C 0.170847 2.358344 -2.528823
C 0.229118 -4.362820 -1.148240
H -1.237414 4.686747 0.687973
C 0.432254 -5.358421 -2.100800
H -0.686080 6.201295 -0.959656
C 0.481297 -6.686651 -1.704545
H -0.053242 6.387613 -2.367231
C 0.329747 -7.030711 -0.371891
H -2.308204 7.073446 -2.414231
C 0.108633 -6.065972 0.566922
H -2.745031 5.645770 -1.932594
C 0.058194 -4.701165 0.198569
C 0.143220 -3.648411 2.299894
C -0.029524 -2.449346 3.066638
C 0.459487 -2.044705 4.305839
C 0.217962 -0.661608 4.422136
C -0.425342 -0.263825 3.236263
C -0.804013 1.073550 2.781491
C -1.356150 2.084010 3.628853
C -1.464308 3.211063 2.875859
C -1.021060 2.888721 1.552899
C 1.197090 -2.917999 5.287317
C 2.698289 -2.903139 5.098312
C 0.707758 0.168250 5.559120
C -1.846219 1.942272 5.034950
N -0.183900 2.249753 -1.201534
N 0.315760 0.009365 -2.270964
N 0.223558 -2.982010 -1.461789
N -0.180230 -3.623264 1.047025
N -0.589474 -1.358872 2.453159
N -0.636166 1.555919 1.500392
H -2.496224 4.934790 2.600045
H -2.507506 4.480997 4.086478
H -0.259788 5.594332 2.809597
H -1.181385 6.429906 3.758589
H -0.321514 5.266276 4.338028
C -0.517451 3.543692 -0.789465
C -0.351890 4.438704 -1.870106
O 1.158402 -0.285543 0.348416
O -1.418383 -0.598740 -0.169601
C -0.954154 3.790592 0.495636
C -0.703545 5.888098 -1.866233
C -2.095320 6.137284 -2.442461
C -1.953591 4.579300 3.307472
C -0.832040 5.554326 3.578702