75
Ni1 H26 C43 N4 O1
Ni -0.070086 -0.059219 0.056075
C 6.906972 -0.041170 1.509417
C -4.058629 -0.375459 1.331661
C -3.031267 -0.317315 0.334077
H -3.890432 -0.171872 3.368720
H 7.569334 -0.691077 1.303964
C -3.255402 -0.528109 -1.029946
C -2.483070 -0.816374 -3.366893
H -4.985047 -0.517463 1.179107
H 8.164317 1.238334 2.442166
C -2.224990 -0.559883 -1.943520
C -1.248609 -0.738575 -3.968348
C 4.979763 1.822235 2.114031
H -0.632014 -1.657420 5.188765
C -0.291933 -0.390036 -2.907028
C 3.290039 0.312938 -1.731422
H 6.534472 2.820517 2.965478
H -3.184844 1.829605 6.936256
N -1.788797 -0.100461 0.919401
C 2.431891 0.587117 3.410717
H 3.273511 0.751887 3.818498
H -2.542822 1.882017 4.695246
N -0.882466 -0.333857 -1.663471
C 1.051990 -0.141899 -3.199776
C 1.226670 0.488190 4.038591
H 1.060126 0.571721 4.969787
N 0.832685 0.184037 1.745071
C 1.915985 0.059068 -2.152147
C -1.526521 0.112626 4.706282
H -4.482871 -2.604109 -2.187037
C 2.856007 0.290663 -0.283000
C -1.154149 -0.945274 5.538453
H -6.660659 -2.800653 -3.015542
H -8.132859 -1.013737 -2.857644
C 3.189095 0.439872 1.035781
H -7.469225 0.950069 -1.816271
N 1.597136 0.046456 -0.799825
H -5.310507 1.156441 -0.968039
C 7.260401 1.095184 2.185459
C 2.174828 0.390245 1.998635
O 4.314730 0.539619 -2.286471
H 0.062132 1.151527 -5.314763
C -2.665378 1.118933 6.576959
C 6.296733 2.030899 2.492252
C -2.285251 1.150053 5.244140
C -4.658315 -0.691077 -1.518693
H -1.281663 -1.691815 7.428173
C -5.082939 -1.871162 -2.114708
H -2.561892 0.049240 8.298891
C -6.380967 -1.989089 -2.607670
H 0.844000 1.262902 -7.517980
C -7.253099 -0.937412 -2.507119
H 2.784049 0.136048 -8.137301
C -6.858987 0.226130 -1.895710
H 3.961301 -1.115285 -6.543465
C -5.571638 0.350936 -1.396833
H 3.173076 -1.259418 -4.358891
H 5.359763 -1.041581 0.638877
C -1.539362 -0.966730 6.871489
C -2.059335 -0.024300 2.271293
H -3.319605 -0.995721 -3.780527
C -2.295676 0.064964 7.386466
H -1.054095 -0.881070 -4.885755
C 1.536366 -0.075401 -4.611213
C 0.850484 0.681786 -5.562076
H 4.322358 2.474926 2.322603
C 1.319478 0.751887 -6.873995
C 2.468760 0.085929 -7.243297
C 0.252959 0.229406 2.999997
C 3.164177 -0.661104 -6.297106
C -3.463265 -0.189889 2.521714
C -1.096049 0.117867 3.275309
C 2.695946 -0.741359 -4.997487
C 4.609043 0.672286 1.432082
C 5.588603 -0.255403 1.120123