75
Zn1 H32 C38 N3 Cl1
C -2.630265 -4.267721 -0.628303
C -1.243716 4.184365 -0.744043
C -2.192231 3.771876 -1.677460
H -1.477780 4.803890 -0.062739
C -1.886834 2.872617 -2.697333
H -3.076101 4.114827 -1.617783
H -2.553358 2.581819 -3.309512
Zn 0.643618 0.373340 -0.452136
C -0.564931 2.407973 -2.794787
H -1.501186 -0.814503 -5.104377
H -1.748625 -2.854825 -3.729816
C -0.231669 1.423372 -3.860436
H -0.557129 -4.210826 1.220718
C -0.601713 0.062630 -3.378111
C -1.230341 -0.921972 -4.199476
H -1.369664 -1.122685 4.543703
N -0.358732 -0.402014 -2.153765
C -1.364092 -2.031427 -3.452473
H -1.326195 -1.397678 6.848204
C -0.819057 -1.740629 -2.153819
C -0.839120 -2.620923 -1.094385
H 0.123885 -2.933846 3.280984
N -0.064481 -1.106881 0.683841
C -0.416691 -2.339608 0.245222
N 0.712388 1.706267 1.206807
C -0.369878 -3.281539 1.282163
H 0.651086 -1.042084 8.023085
H 1.252964 2.496477 -1.919205
Cl 2.805587 0.200917 -1.023131
H 1.170484 4.231778 3.096146
C -0.573848 -0.929874 5.024119
H -0.731005 2.697190 -5.418693
H 1.793540 1.023525 -3.438907
C -0.543754 -1.117944 6.388371
H 2.499075 0.080015 4.624681
H -0.595025 1.173665 -5.886035
H 1.464736 0.912896 -5.001062
C 0.547429 -0.458909 4.336322
H -1.892407 1.649372 -5.080136
H 1.606289 2.351078 -4.312857
C 0.004624 -2.578252 2.407936
C 0.177385 -1.238056 2.025875
C 0.476095 -0.139664 2.876502
C 0.625450 -0.899846 7.083870
C 2.509106 3.952044 -0.296469
C 0.668919 1.167343 2.516080
C 1.752300 -0.477874 6.424653
H 2.755430 3.014854 -0.436573
C 0.860628 2.234127 3.447910
C 1.719977 -0.237650 5.066307
C 1.023359 3.364127 2.739718
C 0.935306 3.022757 1.360737
H 2.564835 4.435652 -1.146132
H 0.870660 2.156686 4.394470
H 3.123245 4.358211 0.351659
H -0.191544 -4.673889 -2.719088
C 0.839451 5.428156 0.768187
C 0.053666 3.677050 -0.822428
C -0.924943 1.766323 -5.180253
C 1.079088 4.029484 0.241249
H 1.590684 5.695247 1.337824
C 0.362407 2.820463 -1.852009
H 0.761430 6.050841 0.016204
H -1.349602 -6.662057 -3.114355
H -3.315737 -7.125120 -1.966241
C 1.302006 1.428113 -4.184082
H 0.011312 5.442380 1.292147
H -4.097064 -5.639525 -0.374744
C -1.472207 -3.935833 -1.326007
H -2.962412 -3.667161 0.028991
C -0.995162 -4.855637 -2.244794
H 2.560377 -0.351440 6.907433
C -1.682864 -6.040952 -2.477055
C -2.840922 -6.320686 -1.792950
C -3.305706 -5.441973 -0.861600