195
H87 Rh3 C93 N6 O6
H -4.242054 -4.882178 0.503378
H -0.738001 -3.552026 -0.896761
H -2.492470 -6.706474 3.483890
H -1.634773 -7.461677 4.556707
Rh 0.992534 4.265502 -0.448970
H -1.330965 -7.940282 2.079099
H -0.927515 -6.905375 6.560971
C 3.284772 4.279705 1.520619
C 4.394503 5.084633 1.867629
C 4.675843 5.904168 0.786655
C 3.758557 5.523769 -0.236445
O -0.931423 1.567813 3.406885
H -2.061668 0.366947 -8.379142
H 3.386367 8.540540 -1.673228
H 4.800883 10.271601 -2.261917
H 6.924610 9.758809 -2.946777
H 7.641637 7.527387 -3.143377
H 6.224190 5.827404 -2.454553
H -2.609695 -1.606525 -8.727395
H -3.527958 -2.743991 -8.153165
H -4.485296 -0.142737 -8.098561
H -5.318571 -1.469780 -8.174738
H -4.568330 -0.938341 -9.446560
H -5.160317 -7.029688 -4.088901
H -4.877023 -6.140849 -5.348026
H -3.047335 -7.993116 -4.268589
H -2.714220 -7.066982 -5.489603
H -3.812228 -8.176478 -5.624979
H -4.170742 -7.592205 -2.111667
C -0.751678 4.233088 -1.140217
H -4.163904 -6.815248 -0.756720
H -1.840894 -6.995502 -0.668088
H -1.857501 -7.791107 -2.018012
H -2.506146 -8.412673 -0.732779
C 2.175041 2.284478 4.484374
C 2.425122 3.355747 3.663161
C 2.649803 1.883568 1.850098
C 2.757259 3.165548 2.361175
C 5.137905 5.090849 3.219987
C 5.971180 3.965814 3.367141
C 5.803157 6.899606 0.821197
H 0.110903 -3.474331 1.245375
C 7.173713 6.212775 0.643267
C 3.691152 5.975648 -1.562021
C 2.818802 5.479638 -2.570374
H 2.320596 -0.055718 2.291908
C 2.817825 5.721738 -4.020605
C 1.884909 4.877341 -4.542675
C 1.299761 4.160364 -3.468276
C 0.333631 3.068895 -3.639676
O -1.835032 4.313891 -1.388854
C 0.647208 1.777902 -3.227052
C -2.857821 -4.576678 1.929289
H -6.049273 -3.287861 -6.050891
H -7.175611 -4.443974 -7.716772
C -0.757539 -3.777344 1.102110
H -5.929118 -5.805203 -9.133179
C -1.545877 -4.183538 2.179264
H -3.699888 -6.097339 -8.793151
C -0.987105 -4.336754 3.521726
H -2.630209 -5.059324 -7.060872
C -1.014457 -5.547564 4.266555
C 3.928533 1.737500 7.504871
Rh -2.918094 -1.475064 -2.444660
C 0.225198 4.220656 1.233475
H 0.106996 -0.167600 -3.350423
H -0.131362 -8.104997 3.075169
C 3.734135 6.576391 -4.875074
H -0.271055 -6.793493 2.226821
C 4.892709 5.858483 -5.481793
C 1.542026 4.674400 -6.021144
N 2.895976 4.537655 0.270262
C 0.547567 5.724846 -6.581509
H 0.021031 -5.938840 7.352404
H 1.874164 -6.731337 6.095891
C -1.250861 0.892170 -4.397012
C -1.588860 -6.849434 3.805143
C -1.968864 -0.218257 -5.071000
C -0.752654 -7.480324 2.692876
C -2.205268 -0.279481 -6.455026
C -2.881266 -1.448026 -6.699174
H 0.924641 -7.704087 5.312205
C -3.023890 -2.120560 -5.460041
H 1.184490 -7.927851 6.841506
C -3.591455 -3.389798 -5.190509
H 4.096556 -1.273987 8.195071
C -3.550426 -4.077871 -3.972178
H 3.220298 -2.576168 8.291231
C -3.906009 -5.460856 -3.676059
H -1.142428 4.127421 -4.542824
C -3.584617 -5.676850 -2.314000
H -2.463163 2.337311 -5.144491
C -3.085433 -4.438690 -1.828251
H 4.932761 0.199124 6.605191
C -2.566712 -4.271178 -0.449075
H 4.359335 1.227816 5.571175
C -3.360912 -4.618323 0.642034
H 2.692785 -1.246017 10.175735
H 3.733158 1.265110 8.318063
C -1.273329 -3.824894 -0.186451
C 4.654351 7.048471 -2.003209
C 4.251879 8.347544 -1.953281
C 5.086130 9.385870 -2.306276
C 6.339462 9.071979 -2.721140
C 6.790778 7.720073 -2.821323
C 5.945781 6.716244 -2.431898
H 0.121649 0.177370 -7.703060
H -0.575840 -3.051666 8.435493
H -0.455684 -4.173592 10.476832
H 1.429685 -1.233585 9.248545
H 1.419917 -5.494420 10.942221
H 3.030784 -5.752370 9.393596
H 2.851039 -4.757865 7.294032
H 2.402653 -0.005992 9.263682
C -2.211130 -1.457349 3.137819
Rh -0.465062 -1.335957 3.843771
C -1.763721 0.705701 -7.518721
H -2.230667 1.541707 -7.362591
C -3.328675 -1.796103 -8.104226
C -4.531209 -1.019145 -8.490016
C -4.467712 -6.549529 -4.570896
C -3.413663 -7.536265 -5.030264
N 1.843881 4.507509 -2.289066
C -3.664720 -6.963491 -1.575167
C -2.347892 -7.598421 -1.216063
O -3.293508 -1.441810 2.868127
O -0.385349 4.276597 2.201754
C -4.208840 -4.082533 -6.347569
C -5.581350 -3.884564 -6.588875
C -6.259302 -4.546532 -7.599749
C -5.512969 -5.366999 -8.426550
C -4.181487 -5.544146 -8.223589
C -3.539680 -4.916364 -7.189248
H 2.014834 2.439870 5.386834
H 2.365532 4.220656 4.002700
C -0.354089 -5.285885 5.449422
H 2.770935 1.749932 0.938158
C 0.098204 -3.912846 5.397680
H 5.673233 5.895777 3.285984
C 0.898265 -3.187167 6.306577
H 4.488283 5.103280 3.940719
C 1.518581 -1.951183 6.085923
H 6.687229 4.012432 2.730249
C 2.541370 -1.277095 6.844501
H 5.460274 3.167102 3.216870
C -2.732781 0.323438 -2.027192
C 2.953611 -0.176923 6.141887
C -3.699888 -1.590986 -0.744696
C 2.110568 -0.100470 4.988340
C 2.154527 0.992864 4.021598
H 5.787527 7.368888 1.668238
H 5.677140 7.549142 0.114276
H 6.333600 3.950275 4.255921
H 7.180551 5.718630 -0.179882
H 7.328060 5.612964 1.376875
C 2.367486 0.798936 2.657871
H 7.864364 6.877851 0.623329
N -2.426042 -1.329617 -4.437844
N -3.057104 -3.511625 -2.787843
O -2.689799 1.364561 -1.619887
O -4.367094 -1.575447 0.167251
C -0.128431 0.692648 -3.615443
C -0.128431 -6.358397 6.489857
C 1.078010 -7.265883 6.152633
C 3.188061 -1.612741 8.174284
H -3.405848 -4.816913 2.641250
C 2.346971 -0.960096 9.326768
C 4.160052 0.742995 6.387264
H 1.388657 1.638050 -2.684301
C -0.870856 3.262823 -4.329365
C -1.660172 2.193108 -4.698007
C 1.099501 -3.809355 7.651610
C 0.139233 -3.620710 8.609272
C 0.220314 -4.269935 9.845601
C 1.340790 -5.071755 10.117735
C 2.288359 -5.230255 9.197211
C 2.190671 -4.618945 7.934378
H 3.208576 6.967978 -5.587842
H 4.074087 7.300516 -4.328589
H 3.189038 2.306233 7.280807
H 4.571317 5.168545 -6.066065
C -0.645198 0.503692 3.626856
H 4.717848 2.268939 7.626573
H 5.426083 5.466896 -4.786648
H 5.425106 6.480049 -5.982546
H 1.161045 3.791776 -6.135754
H 2.360648 4.714801 -6.539995
H 0.933433 6.601254 -6.511553
H -0.268124 5.693768 -6.075552
H 0.360984 5.529053 -7.501563
C -0.371673 0.994729 -7.623122
N -0.314037 -3.357476 4.173574
N 1.270455 -1.172361 4.927953
H -0.083495 1.467119 -6.837527
H -0.214396 1.541707 -8.397352