138
H66 Ru2 C58 N8 O4
C 2.069181 4.423535 -0.962812
C 2.708377 5.371899 -0.165371
C 3.170915 4.737311 0.979926
C 2.857975 3.379490 0.857442
C 3.211010 2.201774 1.751150
C 0.522713 -4.825127 -3.752455
C 1.592915 -3.032521 -2.344753
H -0.721832 -3.508110 -5.808579
H -0.981047 -1.249765 -6.900111
H -0.381242 1.170392 -6.229379
C 1.026327 -3.026893 4.885464
H -0.869989 2.887016 -6.960131
C 2.117401 -2.548490 4.200144
H -0.779876 5.055309 -7.727181
C 2.328757 -3.363182 3.138780
H -0.091797 6.771932 -6.335106
C 1.356578 -4.332653 3.080137
H 0.619743 6.294936 -4.162665
C 0.496892 -4.145512 4.229482
H 1.782729 5.483058 -2.655085
C 0.579309 -2.457030 6.218002
H 2.808336 6.293529 -0.370682
C 1.209014 -5.437201 2.083547
C -0.638048 -4.989754 4.660761
C -2.407644 2.912343 -2.573333
C -2.391051 1.527788 -2.179117
C -1.827638 1.458841 -0.874143
C -1.416125 2.764601 -0.479458
C -1.794601 3.659497 -1.518567
C -3.012475 0.373992 -2.917844
C -1.732063 0.233285 -0.035024
C -0.867958 3.167023 0.855591
C -1.667886 5.156618 -1.471557
N 1.394773 0.898828 2.890614
N -0.810932 -1.069661 3.878511
N -1.696692 -2.866487 2.208885
N -0.776967 -3.308307 -0.781376
N 0.036824 -1.117501 -3.929138
N 2.175043 3.220491 -0.304675
O 0.719936 -1.155492 1.295687
O 1.444981 1.253409 -2.003509
H -4.019787 3.625727 -3.618973
H -3.014085 2.775858 -4.528390
O 1.031767 -2.475322 0.947195
O 0.448324 0.403540 -1.884467
H -2.634021 4.268757 -4.093139
H -1.658212 5.511199 -2.385426
C -0.538301 -2.665276 -5.409358
C -0.690704 -1.414392 -6.011191
C -0.336208 -0.446329 -5.061483
C -0.291091 0.935412 -5.313398
C -0.106251 3.268332 -5.100576
C -0.545676 3.576480 -6.392093
C -0.510602 4.859726 -6.837826
C -0.090504 5.875630 -6.019511
C 0.334887 5.589995 -4.733077
C 0.346468 4.294085 -4.279466
C 1.527287 4.664144 -2.248359
H 3.625288 0.182630 1.482837
H 4.107695 1.078933 0.248681
H 4.818041 1.748698 3.002587
H 4.387960 3.288031 3.088425
H 5.221043 2.758973 1.829500
H 3.399247 -0.957095 3.862501
H 3.796945 -1.806965 5.158119
C -3.077241 3.441401 -3.810637
H 3.347946 -2.447181 1.585475
H 3.487037 -4.041389 1.560717
H 4.325806 -3.181671 2.617604
N -0.144139 1.949908 -4.512190
N 0.723295 3.914176 -2.952045
H 1.493663 0.185444 2.385698
H -0.042989 -3.056441 -0.369003
H 0.307624 -0.734778 -3.183511
H 1.847140 2.456453 -0.597842
H 2.062025 3.774876 3.942879
H 0.172180 2.674549 5.181552
H -1.205496 0.489371 4.895535
H -2.410829 -0.734778 6.033709
H -4.327292 -1.961742 6.556100
H -5.083750 -3.631932 5.120815
H -3.946990 -4.059681 3.127205
H -3.309051 -3.351926 1.309032
H -3.808955 -4.058274 -1.067576
H -2.516109 -4.214459 -3.221185
H 3.617942 5.149582 1.712506
H 0.757268 -5.500519 -3.083205
H 1.248462 -4.746331 -4.405347
H -0.301294 -5.091063 -4.210809
H 1.448511 -2.169988 -1.902884
H 2.317065 -2.946690 -3.000624
H 1.837148 -3.706507 -1.676250
C 3.390710 0.935412 0.900739
C 4.529779 2.529621 2.485264
H 2.555678 0.737015 0.430984
H 1.218537 -2.714524 6.914160
H -0.306800 -2.808797 6.443529
C 3.051262 -1.427056 4.648518
H 0.538121 -1.479118 6.157936
C 3.475038 -3.247803 2.136424
H 2.556986 -0.796689 5.212473
H 1.005130 -5.057293 1.203778
H 0.479730 -6.029577 2.361153
H 2.043836 -5.946560 2.034082
H -1.255793 -5.112169 3.909674
H -1.106031 -4.553562 5.402167
H -0.301978 -5.862136 4.953441
H -3.884401 0.164338 -2.523489
H -2.427407 -0.409746 -2.853177
H -3.128766 0.614600 -3.861689
H -1.047231 0.361328 0.653838
H -1.489793 -0.530753 -0.599682
H -2.598032 0.061622 0.391207
H -0.205257 3.877592 0.735717
H -0.443701 2.391728 1.281460
H -1.597928 3.492056 1.423261
H -0.833898 5.400040 -1.018282
H -2.428873 5.533712 -0.983463
Ru -0.339247 2.197975 -2.387385
Ru 0.361417 -2.456749 2.819649
C 2.125498 2.025890 2.790878
C 1.704943 2.910936 3.772014
C 0.661150 2.294640 4.461206
C 0.457574 1.031093 3.919501
C -0.577248 0.144639 4.271214
C -2.034176 -1.692992 4.280818
C -2.717604 -1.415800 5.447707
C -3.854494 -2.143254 5.752476
C -4.307789 -3.129609 4.899813
C -3.630509 -3.385695 3.718149
C -2.492930 -2.662462 3.397108
C -2.381210 -3.233732 1.145537
C -2.002554 -3.481376 -0.176507
C -2.883123 -3.875355 -1.179026
C -2.171281 -3.954151 -2.374334
C -0.864807 -3.584092 -2.097605
C 0.306676 -3.463084 -3.058478
C -0.069476 -2.449995 -4.117817