225
H92 Os2 C122 N8 O1
C -2.037911 -3.359611 0.445752
N 2.139462 -1.093082 -1.386524
N -2.139462 -1.093082 1.386524
C 2.037911 -3.359611 -0.445752
C -1.805631 -3.021449 -0.880921
O -0.000000 0.012423 -0.000000
C 1.805631 -3.021449 0.880921
C -1.665022 -3.941721 -1.973913
C 1.665022 -3.941721 1.973913
C -1.455257 -3.248573 -3.079699
C 1.455257 -3.248573 3.079699
C -1.501667 -1.869005 -2.748080
C 1.501667 -1.869005 2.748080
C -3.591043 -6.788342 0.704893
C 3.591043 -6.788342 -0.704893
C -1.377141 -0.780492 -3.626813
C 1.377141 -0.780492 3.626813
C -2.747849 -7.511774 1.405528
C 2.747849 -7.511774 -1.405528
C -1.362666 0.585617 -3.325131
C 1.362666 0.585617 3.325131
C -1.670306 -6.867415 1.937194
C 1.670306 -6.867415 -1.937194
C -1.292132 1.689271 -4.239149
C 1.292132 1.689271 4.239149
C -1.384033 2.821527 -3.536379
C 1.384033 2.821527 3.536379
H -4.379097 -7.178659 0.405051
C -2.979899 -8.968733 1.774324
H 4.379097 -7.178659 -0.405051
C 2.979899 -8.968733 -1.774324
C -1.550145 2.463175 -2.122133
C 1.550145 2.463175 2.122133
H -1.109708 -7.288015 2.547070
H 1.109708 -7.288015 -2.547070
C -1.801036 3.359895 -1.109869
C 1.801036 3.359895 1.109869
C -2.053994 3.030144 0.184978
C 2.053994 3.030144 -0.184978
N -2.077658 1.744286 0.712795
H -3.354397 -9.019205 2.655368
H 3.354397 -9.019205 -2.655368
N 2.077658 1.744286 -0.712795
C -2.381622 3.958829 1.266306
C 2.381622 3.958829 -1.266306
H -2.143598 -9.439805 1.755143
H 2.143598 -9.439805 -1.755143
C -2.609767 3.238762 2.372485
C 2.609767 3.238762 -2.372485
H -3.586448 -9.364097 1.144659
C 0.179208 -1.170809 7.227320
H 3.586448 -9.364097 -1.144659
C -2.411949 1.849099 2.086761
C 2.411949 1.849099 -2.086761
C 1.215395 -1.800026 7.840882
C -2.615741 0.784140 2.943105
C 2.615741 0.784140 -2.943105
C 2.276855 -2.025468 7.093804
C -2.456751 -0.563462 2.642492
C 2.456751 -0.563462 -2.642492
C -2.629526 -1.660387 3.570355
H -1.713959 -4.867041 -1.913963
C 2.629526 -1.660387 -3.570355
H 1.713959 -4.867041 1.913963
H -0.567490 -0.953779 7.735484
C 1.157956 -2.143236 9.275341
C -2.459049 -2.797689 2.880165
H -1.302701 -3.601877 -3.926935
C 2.459049 -2.797689 -2.880165
H 1.302701 -3.601877 3.926935
H 3.018957 -2.412420 7.499062
C -2.160140 -2.471304 1.486493
H -1.199312 1.627023 -5.163110
C 2.160140 -2.471304 -1.486493
H 1.199312 1.627023 5.163110
C -2.244459 -4.796381 0.772068
H -1.348651 3.682915 -3.880827
C 2.244459 -4.796381 -0.772068
H 1.348651 3.682915 3.880827
H 1.208502 -1.339049 9.798788
C -3.342910 -5.472705 0.402616
H -2.423897 4.885831 1.196643
H 2.423897 4.885831 -1.196643
C 3.342910 -5.472705 -0.402616
H 1.895464 -2.716934 9.497545
H -2.858130 3.587019 3.196856
H 2.858130 3.587019 -3.196856
H 0.333142 -2.595801 9.463640
H -2.823667 -1.589726 4.478071
H 2.823667 -1.589726 -4.478071
H -2.520393 -3.657396 3.229992
H 2.520393 -3.657396 -3.229992
H -3.981624 -5.016775 -0.096500
C -1.435958 -5.504671 1.518961
C 1.435958 -5.504671 -1.518961
H 3.981624 -5.016775 0.096500
C -1.300633 -1.101830 -5.097985
C 1.300633 -1.101830 5.097985
H -0.647904 -5.099213 1.801612
C -0.183573 -0.832646 -5.869023
C 0.183573 -0.832646 5.869023
H 0.647904 -5.099213 -1.801612
C -0.179208 -1.170809 -7.227320
C -1.215395 -1.800026 -7.840882
C -2.276855 -2.025468 -7.093804
C -2.364161 -1.724318 -5.747273
H 0.560598 -0.427188 -5.487056
C 2.364161 -1.724318 5.747273
H -0.560598 -0.427188 5.487056
H 0.567490 -0.953779 -7.735484
C -1.157956 -2.143236 -9.275341
C -1.911777 4.826947 -1.477534
H -3.018957 -2.412420 -7.499062
C 1.911777 4.826947 1.477534
H -3.136132 -1.939665 -5.272915
C -0.820219 5.604216 -1.699256
C 0.820219 5.604216 1.699256
H 3.136132 -1.939665 5.272915
C -0.976451 6.918171 -2.077497
H -1.208502 -1.339049 -9.798788
C 0.976451 6.918171 2.077497
H -4.452618 1.536173 8.848928
C -2.116027 7.533929 -2.254725
H -1.895464 -2.716934 -9.497545
C 2.116027 7.533929 2.254725
C -3.166000 6.791991 -1.962835
H -0.333142 -2.595801 -9.463640
C 3.166000 6.791991 1.962835
C -3.097074 5.446071 -1.586474
H 0.032165 5.247547 -1.594615
C 3.097074 5.446071 1.586474
H -0.032165 5.247547 1.594615
H -0.199885 7.412796 -2.220008
C -2.201036 8.969016 -2.647466
H 0.199885 7.412796 2.220008
C 2.201036 8.969016 2.647466
C -3.140497 1.115573 4.315383
C 3.140497 1.115573 -4.315383
H -4.006896 7.189037 -2.010957
H 4.006896 7.189037 2.010957
C -4.380935 0.745445 4.690105
H -3.880532 4.976681 -1.412168
C 4.380935 0.745445 -4.690105
H 3.880532 4.976681 1.412168
C -4.874215 1.090337 5.955547
C 4.874215 1.090337 -5.955547
H -1.332569 9.372792 -2.576583
H 1.332569 9.372792 2.576583
C -4.163818 1.796945 6.827857
H -2.814477 9.424947 -2.063005
C 4.163818 1.796945 -6.827857
H 2.814477 9.424947 2.063005
C -2.909825 2.146884 6.464014
C 2.909825 2.146884 -6.464014
H -2.513500 9.036312 -3.551023
H 2.513500 9.036312 3.551023
C -2.373810 1.832275 5.231130
H -4.914422 0.255867 4.104855
C 2.373810 1.832275 -5.231130
H 4.914422 0.255867 -4.104855
H -5.730046 0.816106 6.194667
C -4.760487 2.162026 8.188304
H 5.730046 0.816106 -6.194667
C 4.760487 2.162026 -8.188304
C -3.757844 0.000142 -0.685575
C 3.757844 0.000142 0.685575
H -2.384839 2.619639 7.069155
H 2.384839 2.619639 -7.069155
C -4.598511 -1.280165 -0.787347
C 4.598511 -1.280165 0.787347
H -1.509479 2.098095 5.014810
H 1.509479 2.098095 -5.014810
C -4.820912 -1.858910 -2.014611
C 4.820912 -1.858910 2.014611
H -5.718558 2.130060 8.136422
H 5.718558 2.130060 -8.136422
C -5.589896 -2.984436 -2.117086
C 5.589896 -2.984436 2.117086
H -4.482486 3.048651 8.431513
H 4.482486 3.048651 -8.431513
C -6.194147 -3.521121 -1.004068
C 6.194147 -3.521121 1.004068
H 4.452618 1.536173 -8.848928
H -4.445725 -1.482053 -2.779837
C -5.985072 -2.937329 0.240607
C 5.985072 -2.937329 -0.240607
H 4.445725 -1.482053 2.779837
C -5.197248 -1.798344 0.331083
H -5.707070 -3.389894 -2.946568
C 5.197248 -1.798344 -0.331083
H 5.707070 -3.389894 2.946568
C -4.619189 1.219882 -0.891660
C 4.619189 1.219882 0.891660
H -6.738662 -4.269789 -1.083278
H 6.738662 -4.269789 1.083278
C -5.293285 1.857511 0.164462
H -6.368760 -3.305774 1.002516
C 5.293285 1.857511 -0.164462
H 6.368760 -3.305774 -1.002516
H -5.075249 -1.384473 1.156168
C -6.090758 2.919106 -0.014346
H 5.075249 -1.384473 -1.156168
C 6.090758 2.919106 0.014346
H -5.180935 1.526079 1.026420
C -6.272263 3.425508 -1.271501
H 5.180935 1.526079 -1.026420
C 6.272263 3.425508 1.271501
C -5.638144 2.840033 -2.395437
H -6.515802 3.311105 0.711130
C 5.638144 2.840033 2.395437
H 6.515802 3.311105 -0.711130
C -4.790355 1.706095 -2.168143
C 4.790355 1.706095 2.168143
H -6.823671 4.165764 -1.391499
H 6.823671 4.165764 1.391499
N -1.677428 -1.751741 -1.380336
N 1.677428 -1.751741 1.380336
H -5.766806 3.179878 -3.251355
H 5.766806 3.179878 3.251355
N -1.516371 1.108507 -2.018827
N 1.516371 1.108507 2.018827
H -4.356121 1.298955 -2.882784
H 4.356121 1.298955 2.882784
Os -1.881679 0.003069 -0.327071
Os 1.881679 0.003069 0.327071