89
Ni1 H27 C48 N4 Cl1 F8
Ni -0.182219 -1.174874 -0.404665
H -4.609859 -1.300012 1.974528
H -5.018522 -3.674756 0.859297
H -4.714339 0.806953 0.772036
C 0.222979 -5.203057 0.662196
C -1.048480 -4.992753 1.073608
C -1.333181 -3.617282 0.893391
C -2.491732 -2.996818 1.309390
C -2.749285 -1.664453 0.976846
C -3.977401 -0.981289 1.371912
H -2.652359 3.834818 -1.501700
H -4.396696 5.181551 -2.283471
H -6.426857 4.282858 -2.818874
H -6.769165 2.025675 -2.533520
H -5.068856 0.646286 -1.801354
C -1.338744 1.339899 -1.560562
C 0.220097 1.811452 -3.030555
C -4.036342 0.170814 0.719806
C -2.842602 0.246576 -0.085512
C -2.583144 1.228869 -1.040105
C -0.076439 0.771685 -0.979889
C 0.296980 1.406517 0.420278
C 0.349214 2.926981 0.532830
N -0.256035 -2.968080 0.332154
H 4.606180 -2.721201 -0.639188
N -2.018931 -0.885934 0.103031
H 0.678747 -6.014232 0.667547
H 3.550836 -4.956178 -1.867877
H 5.086694 -6.705233 -1.614147
H 5.441505 -7.618295 0.448554
H 2.844189 -5.005815 2.064613
C -3.701271 2.096212 -1.555773
H -1.629423 -5.635423 1.412712
C -3.478469 3.461233 -1.708066
C -4.533708 4.267183 -2.183030
C -5.742183 3.740768 -2.498987
C -5.937411 2.391422 -2.335698
C -4.921853 1.560654 -1.883393
N -1.085839 1.931626 -2.785063
H 0.635738 2.157605 -3.786770
H 4.704569 -0.492756 -1.578615
F -0.544750 1.039464 1.399654
H 2.651114 3.277053 -2.424980
H 4.132751 4.371682 -3.829266
C 3.936069 -0.951246 -1.327532
H -5.982843 -5.527005 4.247147
H 5.563391 3.172554 -5.191684
H -3.825518 -5.251388 4.972181
H 5.444973 0.852672 -5.241079
H 3.962225 -0.241958 -3.915023
H -6.544539 -4.771998 2.140608
C 3.879180 -2.167355 -0.812517
C 2.498387 -2.483465 -0.564433
F -0.531015 3.577488 -0.160381
C 2.049764 -3.715250 -0.108836
H -2.300095 -4.103203 3.707330
C 0.729198 -3.959517 0.225243
F -0.666236 3.462539 2.519965
F -0.157194 5.702741 1.367046
C 0.895540 1.108695 -2.029229
C 2.202863 0.678942 -2.102236
C 2.581508 -0.469243 -1.427273
C 3.038526 -4.819023 0.062990
C 3.706044 -5.318006 -1.026678
C 4.628769 -6.376061 -0.874647
C 4.845939 -6.910313 0.350397
C 4.197371 -6.417860 1.435124
C 3.277809 -5.345437 1.315979
C 0.663729 3.567038 1.885750
C 0.625745 5.016965 2.182928
N 1.683067 -1.400592 -0.900961
C 3.165076 1.377780 -3.017340
C 3.209630 2.795051 -2.990354
C -3.476712 -3.742681 2.109166
C 4.102506 3.441639 -3.824786
C -4.759651 -3.976498 1.700507
C 4.951299 2.725820 -4.652839
C -5.684557 -4.637455 2.469164
C 4.884236 1.334674 -4.677669
C 4.005808 0.686779 -3.881883
C -5.353884 -5.098558 3.713219
C -4.081469 -4.914378 4.143332
C -3.157887 -4.235133 3.373206
H 4.359362 -6.790139 2.271143
Cl 1.414745 5.621754 3.520521
F 1.514175 0.993746 0.799239
F 1.540733 3.288809 -0.159668
F 1.456889 2.861669 2.592595
F 2.027633 5.142364 1.711938