110
Bi1 H41 C54 N8 O6
N -0.757838 -2.121353 -0.732529
N -2.273513 0.319513 -0.771743
N 0.156493 1.834625 -1.270113
H -0.241373 -5.258852 -0.794577
N -4.053091 -1.427368 2.475311
N -2.551435 5.035696 0.262772
O -1.472882 7.038186 0.380724
H 2.399800 -4.212578 4.365929
H 0.882641 -4.217875 3.973699
C 3.404325 -6.091899 -2.277397
C 3.758079 -6.677283 -1.103785
C 3.455144 -6.103818 0.119934
H -3.024007 -0.246005 5.072456
H -3.632638 0.965820 4.285449
O 2.062456 -6.155470 2.578749
C 1.772198 -4.041730 3.659641
H 3.465917 1.908791 0.973047
H 2.354571 -3.436480 1.361517
H 4.807731 -0.100321 -1.595971
H 4.242692 -2.484238 -1.480030
C -3.292006 0.071851 4.207312
H 3.760554 2.944471 -3.512143
H 5.635588 4.290059 -3.601259
H 6.819296 4.737706 -1.659082
H 6.202446 3.743083 0.335537
H 3.919281 1.274405 3.308557
H 5.251583 0.474468 3.481891
H 3.812195 -1.170435 3.198511
H 4.372049 -1.012831 1.748541
H 2.416378 -4.525136 -3.068087
H 1.840340 -3.123922 3.386937
Bi -0.135727 -0.009070 0.125349
O -5.439928 -0.982370 4.244078
H -3.281453 -1.226059 2.156302
H -2.719426 4.313899 0.701066
H -2.573379 -4.702605 -0.270932
C 2.614190 1.670400 -1.478035
H -5.393764 -0.186407 -0.308687
C 2.724390 0.279781 -1.381268
H -4.906583 2.082288 -1.112277
C 3.955719 -0.460557 -1.494274
H -0.485802 4.793331 -2.277693
C 3.646426 -1.773036 -1.424778
H 1.924714 4.311250 -2.218233
C 2.216110 -1.865744 -1.246334
C 1.505811 -3.059027 -1.069510
H -4.743619 -3.796716 -1.204326
H -6.683843 -4.775447 -0.395891
H -7.417252 -4.264229 1.738271
H -6.251270 -2.774281 3.057476
H -2.536244 0.067878 3.616156
H -3.534839 3.140482 -3.624365
H -4.381431 5.095294 -4.532188
H -4.258410 7.071296 -3.314826
H -3.483687 7.050105 -1.144144
H -2.147126 4.941663 2.627881
H -2.182980 6.487236 2.891048
H -0.815288 5.768088 2.631741
C 3.867043 2.480931 -1.547205
C 4.257968 3.091479 -2.740109
C 5.371339 3.911282 -2.793937
C 6.088337 4.162917 -1.635207
C 5.723198 3.558992 -0.439239
C 4.647922 2.683564 -0.391829
C 5.180041 1.504850 1.716363
C 4.554910 0.704913 2.847307
C 3.839272 -0.577104 2.432135
C 2.414322 -0.427447 1.897018
C 2.302844 -4.333098 -1.055675
C 2.668743 -4.921131 -2.266267
C 2.696507 -4.922455 0.129951
C 2.073495 -4.923779 2.503797
C 0.120551 -3.161005 -0.867495
C -0.598601 -4.403291 -0.714906
C -1.886372 -4.097355 -0.437018
C -1.993131 -2.659058 -0.443634
N 1.673093 -0.602268 -1.229454
C -3.161275 -1.921369 -0.173179
C -3.295633 -0.541346 -0.431467
C -4.554074 0.159261 -0.511167
N 4.304728 2.009446 0.805698
N 2.367312 -4.297339 1.353035
C -4.283556 1.414791 -0.937752
C -2.858516 1.528689 -1.075640
C -2.168770 2.699457 -1.424280
C -0.776291 2.816004 -1.539728
O 6.393402 1.679670 1.649850
C -0.090767 3.996043 -2.009470
O 1.969497 0.726104 1.642422
C 1.239471 3.724541 -1.990022
O 1.730976 -1.482993 1.730028
C 1.395041 2.364384 -1.550995
C -4.357920 -2.621975 0.394834
C -5.056206 -3.566271 -0.359655
C -6.211517 -4.171521 0.128714
C -6.648526 -3.861612 1.406723
C -5.955307 -2.961021 2.196410
C -4.811345 -2.333256 1.699963
C -4.368034 -0.828740 3.652075
C -2.938139 3.905984 -1.849040
C -3.501041 3.927174 -3.129430
C -4.012041 5.097942 -3.678356
C -3.962906 6.274008 -2.938349
C -3.478587 6.266062 -1.644638
C -2.977401 5.086023 -1.083467
C -1.895997 6.031643 0.929828
H 3.655328 -6.477299 -3.086223
C -1.746612 5.785305 2.403291
H 4.217001 -7.485166 -1.122738
H 3.746671 -6.490543 0.912817