33
H14 Ru1 C12 N2 O4
H -0.845656 4.802708 0.352202
H -2.221336 4.109545 0.061992
H -0.888543 3.297298 2.371715
H 0.811014 0.826852 4.202016
H 1.094042 -4.101681 1.028442
H -0.638673 1.388572 4.398973
H 0.845656 -4.802708 -0.352202
H 0.569644 2.374953 4.242704
H 2.221336 -4.109545 -0.061992
H 0.888543 -3.297298 -2.371715
H -0.811014 -0.826852 -4.202016
H 0.638673 -1.388572 -4.398973
N 3.046172 0.443759 -0.894345
H -0.569644 -2.374953 -4.242704
O -0.452187 1.906478 -0.406735
O 0.416088 0.463981 1.916396
N -3.046172 -0.443759 0.894345
O 0.452187 -1.906478 0.406735
O -0.416088 -0.463981 -1.916396
Ru -0.000000 -0.000000 -0.000000
C 1.957752 0.297712 -0.564859
C -1.273680 4.063484 -0.085376
C -0.735105 2.758046 0.480392
C -0.572972 2.605258 1.837884
C -1.957752 -0.297712 0.564859
C 0.006847 1.539113 2.493017
C 0.204837 1.531249 3.963595
C 1.273680 -4.063484 0.085376
C 0.735105 -2.758046 -0.480392
C 0.572972 -2.605258 -1.837884
C -0.006847 -1.539113 -2.493017
C -0.204837 -1.531249 -3.963595
H -1.094042 4.101681 -1.028442