88
Co1 H33 C49 N5
Co -0.180958 0.025729 -0.053430
H 1.727088 0.826632 -4.763578
H 1.727088 -1.635710 -4.510598
H -0.380729 -3.369803 -4.362353
H 0.028410 -5.225556 -5.707377
H 1.746367 -6.712900 -5.157082
H 3.040190 -6.332496 -3.261695
H 2.628908 -4.495592 -1.896372
H 0.272608 -5.018218 -0.729394
H -0.862700 -4.812595 1.465302
H -3.364662 -4.135750 2.039789
H -4.131530 -5.638516 3.634632
H -3.251131 -5.624808 5.797205
H -0.920536 -2.465059 4.807237
H -3.015501 -0.792653 4.123572
H -2.914823 1.679970 3.957324
H -0.340030 3.576848 4.170616
H -1.010504 5.352065 5.517756
H -3.364662 4.377067 1.620376
H 0.324019 4.832866 -1.593812
H 2.817412 3.873289 -2.546463
H 3.620696 5.328076 -4.195678
H 2.508951 5.501142 -6.229779
H 0.536086 4.318807 -6.599190
H -0.271483 2.864020 -4.944883
H 2.601061 1.273864 -0.542902
H 4.826694 1.035683 0.069803
H 5.394348 -0.461942 1.787409
H 3.674249 -1.633997 2.877370
H 1.478606 -1.318707 2.184643
N 0.504811 -0.131745 -1.917848
N -0.317752 -1.945002 0.078048
N -1.191511 0.206506 1.656121
N -0.471125 4.206570 0.171997
C -2.582799 5.925926 4.368949
N 1.833550 -0.022079 0.745135
H -0.669912 4.956240 0.585988
C 0.851187 0.887805 -2.804821
C 1.413914 0.336392 -4.011708
C 1.411772 -1.003932 -3.874018
C 0.840263 -1.302257 -2.576805
C 0.713237 -2.600770 -2.075225
C 1.067538 -3.747122 -2.967622
C 0.310523 -3.976735 -4.126656
H -1.640279 -4.034652 6.377143
C 0.556221 -5.075622 -4.932815
C 1.575000 -5.957576 -4.607023
C 2.338227 -5.731218 -3.481335
C 2.092315 -4.638329 -2.666710
C 0.183497 -2.877505 -0.822771
C 0.004204 -4.209946 -0.306787
C -0.615931 -4.098395 0.889989
C -0.829926 -2.699641 1.124996
C -1.510468 -2.189523 2.230900
C -2.048561 -3.148243 3.248957
C -3.013787 -4.104221 2.921436
C -3.463626 -5.004681 3.869451
C -2.951667 -4.992687 5.154608
C -1.997579 -4.048874 5.496254
C -1.559308 -3.122197 4.556660
C -1.717180 -0.818014 2.422633
C -2.529889 -0.289390 3.479671
C -2.475480 1.058130 3.389934
H -2.846276 6.657775 4.912191
C -1.629782 1.368451 2.279269
H -4.050131 6.135148 2.991993
C -1.341457 2.667135 1.874929
C -1.773302 3.807147 2.750077
C -1.089761 4.103073 3.918314
C -1.489690 5.156723 4.721135
C -3.285619 5.623660 3.225842
C -2.879907 4.573094 2.414151
C -0.690904 2.899832 0.673515
C -0.228427 1.952936 -0.254236
C 0.258256 2.726595 -1.327700
C 0.084533 4.107528 -1.030483
C 0.759934 2.243379 -2.552797
C 1.210202 3.208611 -3.596744
C 2.356649 3.953482 -3.373188
C 2.836049 4.817787 -4.353227
C 2.167716 4.930194 -5.553297
C 1.006703 4.219593 -5.779293
C 0.528374 3.355460 -4.794313
C 2.824267 0.667274 0.154493
C 4.153649 0.533962 0.514375
C 4.486744 -0.341138 1.530992
C 3.477605 -1.035461 2.165274
C 2.170287 -0.841832 1.741890