121
Co1 H60 C54 N4 O2
Co -0.146281 0.207350 0.008363
H -4.578999 -1.141445 2.099710
H -5.814934 -0.708059 0.136032
H -4.692438 -0.727758 -1.931781
H -3.521455 -2.338730 -3.279578
C -3.760226 -4.164205 5.179114
H -0.580277 -1.439124 -5.906742
N -2.092491 -1.059802 -0.008864
C -1.468577 -4.866817 5.744416
N -0.150307 0.278661 -1.940409
C -2.560884 -3.070671 6.971120
H 1.773581 0.130259 -5.853187
N 1.737903 1.610340 0.045584
N -0.039612 0.038329 1.932202
H 2.458789 4.190521 -1.812770
O -1.383497 2.049198 0.147338
H 2.694815 5.210511 0.281820
H 2.555761 3.908163 2.191943
H 4.522645 1.404153 -7.578843
O 1.064588 -1.706817 -0.155545
H 3.906050 0.195924 -6.829075
H 2.986645 1.318789 -7.376525
H 4.579364 3.551385 -6.534524
H -3.305555 -2.813703 3.138079
H 4.068889 3.763701 -5.085567
H 1.322570 -2.253366 0.513891
H 3.055258 3.579840 -6.245922
H 0.944745 -2.456926 -0.723821
H 6.003755 1.664622 -5.671695
H -2.627666 -4.923726 -6.293527
H 5.312143 0.491415 -4.927878
H -2.239778 -4.733299 -4.805892
H 5.453942 1.872560 -4.234640
H -1.324034 -4.168583 -5.921618
H -4.583573 -3.693609 -6.314354
H -4.428967 -3.400307 -4.799941
H 5.676246 1.380076 4.158597
H -4.620166 -2.231477 -5.799632
H -3.152779 -2.813703 -7.864469
H -3.268962 -1.456635 -7.120652
H 2.091942 -0.611751 5.705737
H -1.871102 -2.054183 -7.430080
H -0.228067 -2.213967 5.687886
H 6.282778 1.012354 5.539122
H 5.601230 -0.082056 4.673319
H 4.837347 2.800620 6.645923
H 3.295858 2.726200 6.488233
H 4.178669 3.166153 5.292175
H 4.874855 0.441072 7.446270
H 3.330622 0.460771 7.300482
H 4.158543 -0.662093 6.622120
H -3.671487 -4.569137 4.325212
H -2.052238 2.076120 -1.696735
H -1.481384 3.441944 -1.235568
H -3.912088 2.481052 -0.691093
H -3.526029 3.967261 -0.920189
H -4.089565 -4.805530 5.797971
H -3.867261 3.006369 1.424324
H -4.366758 -3.435328 5.122584
H -2.967068 4.238675 1.147624
H -2.203185 1.758742 1.849787
H -1.808893 -5.501574 6.363272
H -1.325863 3.034824 1.763504
H -0.642485 -4.523172 6.065745
H -1.333182 -5.284881 4.902414
H -2.894797 -3.717686 7.580157
H -1.708262 -2.769927 7.264779
H -3.160097 -2.334352 6.931548
C -2.750253 -1.187191 1.161310
C -2.816121 -1.011867 -1.158211
C -2.132743 -1.137067 -2.445312
C -2.149210 -2.062719 -4.750254
C -0.338762 -0.640424 -4.060587
C -0.897723 -0.498807 -2.749683
C 3.947217 1.769905 -5.629744
C 0.837710 0.201177 -4.028751
C 0.876133 0.734812 -2.723500
C 1.916294 1.677536 -2.382832
C 2.854910 1.417286 -4.649392
C 1.964780 2.321925 -1.063300
C 3.068980 0.826961 4.642078
C 2.016926 2.161047 1.230634
C 2.035222 1.345930 2.443949
C 1.084714 -0.325672 3.956874
C 1.039887 0.367965 2.720946
C -0.749520 -0.901331 2.704285
C -0.137499 -1.147574 3.938724
C -1.905865 -2.686095 4.569482
C 3.004942 1.515345 3.410019
C -1.980881 -1.482901 2.396047
C 4.221666 1.105817 5.608446
C -2.807888 -3.007633 -5.778507
C -4.156347 -1.061772 1.251758
C -4.878148 -0.857774 0.088725
C 3.831948 1.128580 -6.987955
C -4.218556 -0.839826 -1.115962
C 3.904220 3.318276 -5.907634
C -2.697193 -1.902279 -3.458392
C 5.310314 1.431513 -5.064443
C -0.968165 -1.377181 -5.042723
C 2.814657 1.953765 -3.362886
C 1.813833 0.518118 -4.986788
C 2.348094 3.692564 -1.011232
C 2.499041 4.282889 0.223802
C 2.389261 3.532780 1.333875
C -2.450189 -3.706742 5.579586
C -2.488612 -2.372000 3.336827
C -2.224226 -4.334933 -5.665745
C -4.230448 -3.087306 -5.674671
C -2.768550 -2.259932 -7.194141
C 5.575614 0.833527 4.928894
C 4.128353 2.596622 6.049381
C 4.148480 0.257649 6.861927
H 3.493461 2.581738 -3.148666
C 2.072730 -0.116202 4.896761
C -0.674504 -2.031857 4.869984
C -1.993689 2.687020 -0.971959
H 3.695639 2.137407 3.212461
C -3.262558 3.150831 -0.509602
C -3.116185 3.323748 0.939355
C -1.958011 2.496374 1.302933