12
H6 C6
H 1.258087 1.141314 -1.608371
H 1.760512 1.392930 0.662025
H -1.257691 -1.141725 1.609256
H 0.502052 0.250793 2.271061
H -1.760186 -1.392107 -0.662679
C -0.297630 -0.148831 -1.349544
H -0.501655 -0.251204 -2.271546
C -0.747906 -0.677964 0.955482
C 0.747020 0.678786 -0.955860
C 1.045489 0.826795 0.394073
C 0.298026 0.148420 1.349059
C -1.045093 -0.827206 -0.393188