197
Dy1 H80 C96 N12 Cl4 O4
H 5.290364 2.720677 3.877415
C 4.074539 4.575769 -7.872843
C 1.267612 4.618911 -6.420578
C 0.360734 5.357113 -5.440522
H 7.981267 2.008040 4.272223
Dy -0.047531 0.005307 0.026900
H 6.770013 1.140412 4.755345
H 4.724842 4.414388 -4.359228
H 6.236099 3.388574 4.933569
H 3.392683 -3.693055 3.664897
H 6.505207 3.591500 3.401797
H 5.409479 -3.133811 4.667429
C 0.732883 5.165373 -0.822936
H 6.475367 -1.163673 4.159887
H 5.436678 2.738253 -0.753066
C 0.067085 6.165621 -0.235413
C 0.327715 7.501415 -0.556411
H -0.543278 1.212315 -5.912408
C 1.298839 7.822581 -1.403541
C 1.987565 6.841507 -1.983526
H -1.957227 0.226448 -7.481952
C 1.703037 5.513702 -1.691550
H -3.021778 -1.758070 -7.018464
H -2.563874 -5.378776 -1.576073
H -2.793961 -7.235467 -0.205787
H -1.661545 -7.387262 1.771211
H -1.630988 -2.069649 4.863908
H -4.716668 -2.664046 0.591786
H -5.014780 -1.412936 -1.489763
H -3.123086 3.252758 -3.170195
H 2.939990 3.260747 3.142894
H 1.284688 3.065810 5.182937
H 2.557012 3.391770 7.080457
H 4.220682 -0.236926 6.613492
Cl 1.633324 9.498077 -1.776030
H 6.085956 4.104406 -2.531558
H 4.656283 4.120385 -8.486196
H 4.273213 3.185648 -6.415935
H 3.053920 2.904428 -7.357544
H 0.815167 3.813600 -6.717655
H -6.604437 -2.673633 -5.895403
H -7.636684 1.172369 -2.981474
H -6.019798 -4.114885 -5.707739
H -5.182879 -3.021962 -6.457395
H -5.842064 -2.902124 -3.746760
H -5.007638 -1.810799 -4.495426
H 8.145537 1.504720 -0.412631
H -3.589999 -3.175354 -3.185477
H 6.953494 0.587560 0.029166
H -3.183543 -5.393157 -3.817211
H 8.418835 0.229643 0.456063
H -4.293222 -5.302080 -4.916238
H 8.497690 2.153443 1.830656
H 7.044270 2.536925 1.389070
H -5.096520 -6.490873 -3.094735
H 7.593135 0.188100 2.848717
H -5.932989 -5.174253 -3.249358
H -4.819298 -5.271721 -2.149747
H 0.800119 -9.291888 4.078140
H 0.528063 -8.413075 2.807593
H -0.668016 -8.897221 3.696562
H 0.083119 -7.551839 5.451760
H 1.292211 -7.077281 4.575043
H -1.384292 -6.521232 3.851747
H -0.873426 -5.214199 5.777132
H -1.084120 -4.305028 4.516123
H 0.836972 -3.595587 5.679619
H 1.263033 -4.114885 4.262623
H 1.471720 -5.020860 5.524274
H -4.084174 -1.297892 4.321548
H -5.400856 -2.648067 5.638554
H -4.485183 -5.778237 3.272876
H -3.151959 -4.412083 2.002871
H -5.893416 1.044542 -1.454601
H -5.004301 0.943878 -5.998120
H -3.272765 0.870377 -4.485158
H 2.942764 -0.562885 4.718443
C 2.093468 -2.039290 1.696488
C 3.307568 -2.024909 2.507062
C 4.458925 3.834371 -3.682420
C 3.831383 -2.903722 3.444291
C 5.031829 -2.560186 4.038766
C 5.686686 -1.377784 3.716389
C 5.192851 -0.502167 2.745631
C 3.987964 -0.866475 2.140475
C 3.186585 -0.241719 1.077205
C 3.043436 1.194739 -0.755660
C 0.272366 -3.274421 0.890036
C 3.693592 2.151845 -1.640385
C 4.902945 2.830928 -1.508120
C 5.271411 3.658609 -2.570940
C 3.237713 3.144104 -3.795291
C 2.873319 2.287662 -2.747933
C 1.751638 1.397665 -2.521984
C -0.052011 0.173719 -3.344701
C -0.874638 -0.200176 -4.500141
C -0.998762 0.422982 -5.721720
C -1.830287 -0.176208 -6.653219
C -2.478517 -1.371393 -6.370589
C -2.333172 -2.010529 -5.119827
C -1.078727 -1.686167 -2.790339
C -0.909370 -3.135408 -0.956405
C -1.247106 -4.440844 -0.353320
C -2.097153 -5.442690 -0.772625
C -2.226228 -6.543602 0.047891
C 7.071932 1.744396 4.061966
C -1.521956 -1.400154 -4.159448
C 6.196232 2.973135 4.068827
C -0.640920 -5.642420 1.644599
H -1.262316 4.713184 -2.527544
C -1.533534 -6.641070 1.232183
C -0.517864 -4.531921 0.827873
H 2.501172 4.641281 1.171211
C 0.244614 0.018729 3.439040
C -0.122689 -0.719474 4.621889
C -1.177954 -1.488035 4.296825
C -1.478523 -1.238772 2.902753
C -2.580412 -1.791625 2.224078
C 2.002165 1.220305 4.706145
C -2.985933 -1.446491 0.919417
C 1.881556 2.405902 5.459128
C -4.174902 -1.975376 0.276668
C 2.634418 2.602436 6.593866
C -4.346269 -1.280316 -0.858387
C 3.506794 1.611775 7.004458
C -3.297492 -0.286459 -0.916127
C 3.636402 0.422982 6.319141
C -3.261461 0.788888 -1.817720
C 2.872414 0.240828 5.180984
C -2.315998 1.825886 -1.797901
C -2.454908 3.056223 -2.552665
C -1.439106 3.863133 -2.195842
C -0.668566 3.150496 -1.186652
H 4.566866 5.259645 -7.413288
C 0.406631 3.748088 -0.482348
H 3.349276 4.976827 -8.358093
C 1.030994 3.193637 0.628056
C 2.075181 3.843958 1.392183
C 2.315443 3.088180 2.476260
H 3.017130 5.039143 -5.475777
C 1.431149 1.964898 2.410366
C 1.226804 1.031759 3.433972
H 1.409898 5.179753 -7.198574
H -0.475101 5.560039 -5.867363
H 0.786180 6.172012 -5.163518
H 0.201847 4.802663 -4.671082
C 3.532323 3.602685 -6.884307
Cl 4.470644 1.853529 8.447291
C 2.589740 4.241821 -5.853830
C -5.803168 -3.180148 -5.742234
C -5.191553 -2.763112 -4.452802
C -3.889279 -3.491727 -4.063158
C -4.045754 -5.000088 -4.028338
C -5.067674 -5.532169 -3.039494
C 0.245031 -8.601621 3.703474
C 0.362321 -7.350511 4.544926
C -0.469785 -6.211251 4.016272
C -0.502517 -4.972925 4.913298
C 0.898751 -4.368941 5.114710
C -3.459092 -2.694405 3.024984
C -4.155826 -2.200672 4.115038
C -4.951551 -3.002788 4.904494
C -5.071282 -4.351365 4.583263
C -4.399240 -4.877055 3.489763
C -3.605764 -4.055765 2.732963
C -4.381413 0.911921 -2.799395
C 7.804033 0.947074 0.290249
C -5.709524 1.018977 -2.366362
C 7.633773 1.790734 1.578060
C -6.757906 1.089282 -3.274114
C 7.072964 1.010987 2.744561
C -6.467841 1.034955 -4.634218
C -5.182173 0.959857 -5.084550
C -4.148627 0.908726 -4.174513
Cl -7.785289 1.099188 -5.783057
H -0.582276 5.969086 0.399394
H -0.187665 8.174106 -0.173335
H 2.663076 7.047629 -2.590019
H 2.196829 4.844207 -2.107334
N 2.027459 -0.949563 0.887160
N 3.639048 0.784094 0.362031
N 1.853952 0.798475 -1.299530
N 0.809591 1.188348 -3.441990
N -0.253494 -0.708289 -2.325807
N -1.432928 -2.809449 -2.146333
N -0.066283 -2.449935 -0.152814
N 1.253696 -3.073093 1.781404
N -0.573452 -0.342383 2.398668
N -2.442256 -0.459026 0.144494
N -1.202170 1.904180 -0.990398
N 0.687065 2.001648 1.255288
Cl -6.114575 -5.356407 5.540301
O 5.743355 0.662658 2.377127
O 2.355353 3.297497 -4.816331
O -2.869391 -3.250453 -5.023237
O 0.123835 -5.751073 2.760821
H 0.292291 -0.673136 5.452113