231
Ni1 H94 C122 N14
Ni 0.069389 -0.001313 -0.019296
H -0.676575 0.084317 -5.859030
H -1.856360 -0.434200 -7.836342
H -1.909047 0.194045 -10.066769
H 1.530370 -1.466931 -10.751572
H 1.760755 -2.077963 -8.537489
H -0.995258 -3.951939 -8.018458
H -0.677919 -5.838825 -9.310545
H 2.711283 -6.630585 -7.519260
H 2.485292 -4.793185 -6.145732
H 1.073411 -4.001424 -4.355717
N -0.102451 -0.872465 -1.890245
H -0.626011 -5.158943 -1.958661
N 1.106589 -1.661428 0.651428
H -0.026286 -7.263132 -2.851197
N 0.396040 0.953317 1.799407
H 3.816889 -6.105613 -3.030236
H 3.254418 -4.063818 -2.124242
N -1.105385 1.594256 -0.633325
N -1.765621 -0.925392 0.670246
H 3.380968 -8.229166 -3.708346
N 1.888983 0.944281 -0.739569
H 1.823063 -7.940862 -5.450111
N -0.207955 -0.560709 -10.612768
H 2.154921 -9.477049 -5.149035
N 1.037144 -6.417369 -8.558818
H 0.784180 -8.838047 -4.628447
N 2.343743 -10.280213 1.782574
H 2.479518 -10.184900 -2.888183
H 2.690542 -9.113442 -1.718757
H 1.226406 -9.373776 -2.310830
H 1.627271 -5.722642 0.058217
H 3.455137 -7.628891 0.312349
H 3.545559 -9.928869 0.297235
H 1.104241 -10.191355 3.303528
H 0.986749 -7.902135 3.496027
H 4.322564 -7.168465 3.673726
H 5.029552 -8.089317 5.676883
C -1.079964 5.426333 1.551453
H 1.590995 -5.042761 5.765626
C -1.440439 6.606012 2.193489
H 2.461858 -3.482907 4.086724
C -2.233667 6.611822 3.340236
H 4.419209 -1.189384 3.021514
C -2.671771 5.387175 3.818547
C -2.583636 7.921238 4.015221
H 1.177986 -1.032323 5.411304
C -3.872437 8.462346 3.502953
C -4.665388 4.603160 -0.885986
C -5.711390 5.505724 -0.345958
C -5.378186 6.600634 0.457670
H 3.185610 1.194503 4.858226
C -6.386169 7.426388 0.922283
C -7.988327 6.167962 -0.071460
C -7.071590 5.301759 -0.596669
H 5.776092 -1.684234 4.855672
C -5.587392 4.686424 -3.264226
C -5.771085 6.050489 -3.465014
C -6.569447 6.467885 -4.509423
C 1.499017 5.369102 5.762633
C 1.490002 6.602570 5.076979
N 3.765519 -7.172984 6.871974
C 1.263909 7.762671 5.783487
C 1.001982 6.646461 7.740338
C 1.260468 5.396426 7.124797
H -2.623504 3.363238 3.524866
H 2.383544 -6.051825 7.679201
C 5.296735 4.658454 7.446176
C 4.322995 4.515593 6.480954
H 2.545697 -1.596022 7.258987
N 5.680710 3.684675 8.278667
C -2.598618 7.814738 5.557435
H 3.787751 -2.809481 8.698449
H 4.472403 -3.908909 7.758059
H -7.562135 3.731148 -5.660220
H -6.178785 2.885600 -4.036041
H -3.798533 2.864084 -3.532328
H -3.515126 -0.135138 -4.218099
H 3.619112 1.444079 7.193092
H -4.540378 0.422106 -6.234530
H -1.895021 3.429935 -6.734939
H -0.865188 2.857630 -4.736836
H -3.071602 2.504780 -8.612430
H -5.237811 3.763421 -7.388067
H -3.843138 4.406726 -7.837359
H 6.019269 -2.404994 7.030082
H -4.895117 3.924785 -8.943490
H -4.907512 1.738838 -9.630654
H -3.984821 0.615743 -8.961101
H 5.272820 -3.315089 9.011589
H -5.351305 1.054654 -8.253836
H 6.292206 -1.126990 8.798426
H -1.784829 -2.420055 -0.620214
H 6.023226 -0.229805 7.500237
H -3.836394 -3.278513 -0.086126
H 4.860181 -0.449260 8.577831
H -5.157144 -2.213509 1.553199
H -4.249412 -0.365351 2.681861
H -2.132290 0.379076 2.102015
H 5.311710 1.811990 8.713628
H 3.144003 -0.326624 0.111964
H 2.936031 3.460056 -2.463500
H 1.033866 2.367083 -1.803160
H 5.121713 0.723319 -0.488912
H 5.000588 2.726387 -1.719503
N -7.680814 7.242218 0.676199
N -7.239438 5.633094 -5.324986
C -0.585034 -0.225287 -2.995503
C -0.232012 -1.003493 -4.179197
C -0.339305 -0.750258 -5.557848
C 0.044638 -1.705965 -6.474938
C -0.025661 -1.334827 -7.918275
C -1.129326 -0.651504 -8.408530
C -1.152682 -0.287466 -9.752576
C 0.838500 -1.234566 -10.144574
C 0.979058 -1.619689 -8.820168
C 0.511922 -2.965896 -6.017482
C 0.724653 -4.128149 -6.932114
C -0.218251 -4.483580 -7.892690
C -0.016687 -5.619154 -8.664669
C 1.945273 -6.079795 -7.622084
C 1.821212 -4.974558 -6.800660
C 0.704552 -3.180833 -4.658017
C 0.354453 -2.182742 -3.729115
C 0.430475 -2.077533 -2.266039
C 0.919827 -3.040985 -1.380665
H 1.637517 6.631400 4.140209
C 1.259058 -4.398165 -1.955011
C 0.280831 -5.347417 -2.166852
C 0.647930 -6.610361 -2.699875
H 0.148489 4.596060 3.732988
N 1.025330 7.790210 7.101283
H -8.907489 5.998853 -0.246731
H -0.542061 5.452366 0.768670
H -1.137133 7.433918 1.839369
C 2.574395 -4.710566 -2.274226
H -3.225341 5.357699 4.590450
C 2.911261 -5.934782 -2.801731
C 1.970150 -6.918674 -3.007333
C 2.398597 -8.274348 -3.529635
H -1.870304 8.578528 3.773004
C 1.733973 -8.665925 -4.797016
C 1.175083 -2.867142 -0.002784
C 2.180852 -9.324291 -2.528438
C 1.635502 -3.890406 0.938138
C 1.784150 -5.270392 0.878573
C 2.158999 -6.000189 2.004094
H -4.598464 7.842708 3.726847
H -4.047155 9.333713 3.913992
C 2.224397 -7.478070 1.925506
H -3.818503 8.565619 2.530270
C 2.971623 -8.125893 0.960261
H -3.631896 4.486332 0.857375
C 3.003699 -9.507171 0.953471
H -4.472253 6.775552 0.682877
C 1.604017 -9.659498 2.696676
H -6.136276 8.174042 1.450892
C 1.520300 -8.290915 2.813820
C 2.405801 -5.310626 3.235848
H -7.356666 4.565939 -1.126162
C 2.863652 -6.003201 4.471017
H -5.353639 6.683037 -2.893142
C 3.897549 -6.916952 4.484010
H -6.652247 7.401646 -4.659868
C 4.313215 -7.467097 5.693059
C 2.297591 -5.675309 5.709777
C 2.281366 -3.943979 3.275936
C 1.895908 -3.218270 2.152023
C 1.603240 -1.802998 1.915607
C 1.822900 -0.748968 2.824033
C 2.681497 -1.063735 4.027451
C 4.027886 -1.260169 3.883145
H 1.279543 8.587134 5.310400
H 0.800517 6.657219 8.668110
H 1.270047 4.596060 7.637282
C 2.109469 -1.174754 5.290831
C 1.327762 0.559373 2.712993
C 1.609847 1.664611 3.633416
C 2.559097 1.876320 4.645367
H -1.742216 7.453282 5.869073
H -2.738471 8.703317 5.946301
H -3.325455 7.218766 5.836253
H 5.721489 5.506154 7.524435
H 4.115418 5.239365 5.900369
C 4.841454 -1.563749 4.981335
C 0.746227 3.897891 3.976509
C 2.783835 -6.286341 6.850396
C 0.719145 2.691747 3.283779
C -0.042318 2.210667 2.113575
C -1.022948 2.920239 1.436654
C -1.512248 4.204483 2.063578
C -2.311594 4.191789 3.180061
C 4.305478 -1.692840 6.239391
C 2.934084 -1.504152 6.398234
C -1.598270 2.565238 0.192102
C 4.631442 -3.106391 8.299303
C -2.701515 3.245549 -0.458549
C -3.662221 4.159946 -0.035000
C 2.586163 3.091500 5.342778
C 3.642155 3.294819 6.359029
C 4.041022 2.294361 7.226529
C -4.659560 4.150910 -2.231493
C 1.641070 4.090022 5.020692
C -7.085202 4.337877 -5.107737
C 5.187540 -2.015569 7.426790
C -6.273661 3.825815 -4.127859
C -3.756686 3.196925 -2.642368
C 5.623767 -0.866656 8.129651
C -2.773192 2.707669 -1.766995
C -1.739536 1.679671 -1.844421
C -1.410802 0.906414 -2.976791
C -2.077701 1.298421 -4.265066
C -3.176507 0.590786 -4.730238
C -3.791967 0.925563 -5.935911
C -3.322703 1.988845 -6.709528
C 5.052985 2.528447 8.144903
C -2.230107 2.696481 -6.232228
C -1.615201 2.356755 -5.034219
C -3.893290 2.367083 -8.059880
C -4.521931 3.733299 -8.056857
C -4.587414 1.366625 -8.781087
C -2.292421 -1.994699 0.062106
C -3.513882 -2.508268 0.366177
C -4.287636 -1.892932 1.343989
C -3.758354 -0.805768 1.995405
C -2.497169 -0.363415 1.637127
C 3.099737 0.473097 -0.399441
C 4.283642 1.086927 -0.750537
C 4.210379 2.246597 -1.496334
C 3.000435 2.694114 -1.906828
C 1.873954 2.033597 -1.511884