113
Fe1 Si2 P3 H63 C42 O2
Fe -2.732177 0.003352 0.688022
P -2.261499 -0.062407 -1.518278
P 1.123302 -3.232411 -0.871743
P 1.211264 3.198957 -0.887406
H -0.163637 1.073323 2.547456
H -0.456070 2.368431 1.710690
H 0.864522 1.557733 1.467492
H 0.787932 -1.682548 1.514895
H -0.574436 -2.387830 1.830228
H -0.189167 -1.062602 2.572188
H -2.763045 -5.191388 -0.383286
H -1.955372 -6.436298 0.123720
H -2.243163 -6.258095 -1.407603
H 1.379762 -7.568263 -0.735717
H -0.026704 -7.593362 -1.428213
H 0.077737 -7.505516 0.134025
H 3.426795 -7.678699 -1.727058
H 4.742746 -6.983456 -2.219637
H 1.335664 7.508706 -0.443055
H 3.394303 -6.739996 -2.980146
H -0.059196 7.373172 0.259746
H 3.948998 -3.715567 -2.617410
H 0.022035 7.536315 -1.296309
H 5.223172 -4.001695 -1.747668
H -2.254768 6.120731 -1.354017
H 4.067364 -3.108171 -1.176771
H -1.999469 6.258776 0.187611
H 3.995416 -7.209347 2.172354
H -2.751440 5.001316 -0.375042
H 3.626393 -7.746466 0.748203
H 2.602876 -6.860471 1.541688
H 6.016920 -5.106051 0.274173
H 5.854457 -6.659679 0.142269
H 5.968181 -6.002086 1.560237
H 2.823361 -4.461007 1.601457
H 4.204297 -3.788354 1.298490
H 4.062722 -4.772235 2.510358
H 4.095215 3.236856 -1.292187
O -2.672530 2.887980 -1.603398
H 5.297441 4.183089 -1.640496
O -2.844276 -3.039902 -1.325163
H 4.127707 3.992336 -2.664813
H 4.647589 7.174889 -2.145441
H 3.347885 7.812404 -1.543629
H 3.264332 6.943979 -2.846181
H 4.271603 4.727737 2.508297
H 4.341230 3.821663 1.230477
H 2.967257 4.411490 1.696263
C -1.679185 2.594322 -0.966549
H 5.975144 6.238697 1.587030
C -1.486550 1.206347 -0.509007
H 5.801076 6.803424 0.134025
C -0.771713 0.656679 0.643092
H 6.079584 5.274895 0.354552
C -0.785638 -0.756395 0.678129
H 2.563421 6.733147 1.683897
C -1.539931 -1.298533 -0.453360
H 3.477855 7.724558 0.886290
C -1.783625 -2.736706 -0.830523
H 3.944356 7.174889 2.279526
C -0.653347 -3.667879 -0.807852
C -0.767071 -5.030754 -0.739839
C 0.495499 -5.738546 -0.778998
C 1.614172 -4.973027 -0.939756
H -5.972850 2.320743 0.505005
H -5.562050 1.507535 -0.770754
H -4.596556 2.596832 -0.191613
C 1.623456 4.941078 -0.890292
H -5.176781 -2.144369 -0.377103
C 0.516387 5.663930 -0.680070
H -5.466893 -0.771454 -1.073721
C -0.741541 4.920999 -0.700680
H -6.439351 -1.311082 0.028914
C -0.558190 3.580713 -0.828462
C -0.068480 1.489966 1.688019
H -4.680108 -2.922438 2.627835
C 3.793498 -6.883060 -2.118648
C -0.133465 -1.539483 1.741605
H -3.115822 -2.839612 2.603103
C 4.271603 -3.868671 -1.724997
H -3.907249 -3.105661 1.275819
C -2.045887 -5.798784 -0.587325
C 4.139312 -5.738546 0.719349
H -3.197053 -0.138959 4.639371
C 0.479252 -7.236956 -0.694497
C 3.533557 -7.008555 1.356198
H -1.913596 0.358001 3.887106
C 5.629329 -5.889140 0.669885
H -2.284940 -1.165508 3.880923
C 3.774930 -4.586502 1.613823
H -3.111180 3.073713 1.824045
C 0.446760 7.154810 -0.525495
C 4.350514 4.050064 -1.733241
H -2.700381 2.428669 3.192549
C -2.057491 5.641341 -0.546105
C 3.707624 7.049394 -2.001171
H -4.167189 2.938178 2.974083
C 4.141633 5.789425 0.785301
C 3.909543 4.579653 1.630311
C 5.636292 6.050454 0.706983
C 3.470892 6.964058 1.471614
C -4.582631 0.870021 0.915144
C -4.717243 -0.550583 0.805911
C -4.004726 -1.132880 1.865265
C -3.408255 -0.078722 2.683482
C -3.814413 1.141090 2.021901
C -5.239445 1.921669 0.033036
C -5.522595 -1.258375 -0.249321
C -3.918853 -2.641329 2.116707
C -2.637716 -0.271984 3.868557
C -3.410576 2.526555 2.553639
Si 3.431437 -5.412761 -1.007356
Si 3.432830 5.503798 -0.954801