112
Fe2 P4 H54 C48 O4
Fe 0.079917 -4.228438 -1.750161
P 0.703591 -2.166575 -0.964884
H -2.505056 -3.209301 -3.797288
H -3.204734 -4.138121 -2.697160
H -3.455116 -2.557226 -2.685469
H -3.370298 -3.798425 0.271725
H -2.992499 -5.063379 -0.633454
H -2.310271 -4.873339 0.801269
H 0.121156 -4.751000 -5.292434
H 1.292207 -3.753290 -4.853651
H 1.643783 -5.240353 -5.329356
H -2.178396 -6.458985 -2.996129
C 0.489111 1.401783 3.515963
H -1.661606 -5.692886 -4.303638
C 0.487716 2.259457 2.276686
H -1.266805 -7.225084 -4.064872
C 1.609333 3.081261 1.954420
H -0.322787 -8.012562 -0.562345
C 1.529745 3.617649 0.628267
H -0.634751 -6.710788 0.313181
C 0.334363 3.204906 -0.040183
H -1.613291 -7.122937 -0.883605
C 0.081870 3.496736 -1.503126
H 2.704076 -5.053877 0.202690
H 1.538602 -5.986261 0.780036
H 2.760831 -6.637148 -0.021560
H 3.882686 -5.001616 -2.786830
H 3.136999 -3.682025 -3.301142
C 2.797371 3.262037 2.863012
H 3.429928 -3.879192 -1.740885
C 2.648611 4.407503 -0.008422
C -0.872482 5.166475 3.433760
C 0.201257 5.932099 2.885370
C -0.129728 6.269183 1.533117
C -1.408590 5.704289 1.244503
C -1.864410 5.025014 2.412519
C -0.992922 4.686506 4.850040
C 1.434424 6.365034 3.626799
C 0.680480 7.100845 0.584278
C -2.168511 5.858696 -0.040402
C -3.194742 4.336832 2.574468
C -0.489111 -1.401783 -3.515963
O 0.588751 1.917979 4.638518
C -0.487716 -2.259457 -2.276686
O 0.231668 4.644340 -1.946636
C -1.609333 -3.081261 -1.954420
C -1.529745 -3.617649 -0.628267
C -0.334363 -3.204906 0.040183
C -0.081870 -3.496736 1.503126
C -2.797371 -3.262037 -2.863012
C -2.648611 -4.407503 0.008422
C 0.872482 -5.166475 -3.433760
C -0.201257 -5.932099 -2.885370
C 0.129728 -6.269183 -1.533117
C 1.408590 -5.704289 -1.244503
C 1.864410 -5.025014 -2.412519
C 0.992922 -4.686506 -4.850040
C -1.434424 -6.365034 -3.626799
C -0.680480 -7.100845 -0.584278
C 2.168511 -5.858696 0.040402
C 3.194742 -4.336832 -2.574468
P -0.155634 0.711462 -1.699218
H 0.229657 4.038350 -4.686146
H -1.227157 4.243831 -4.055488
H -1.053694 3.420720 -5.417131
H -1.047389 1.602275 -6.218014
H -1.777454 0.251803 -5.768029
O -0.588751 -1.917979 -4.638518
H -0.216085 0.238738 -6.116054
O -0.231668 -4.644340 1.946636
P 0.155634 -0.711462 1.699218
H -0.229657 -4.038350 4.686146
H 1.227157 -4.243831 4.055488
H 1.053694 -3.420720 5.417131
H 1.047389 -1.602275 6.218014
H 1.777454 -0.251803 5.768029
H 0.216085 -0.238738 6.116054
C -0.221545 2.339986 -2.341286
C -0.483655 2.344619 -3.752260
C -0.617887 1.068500 -4.279375
C -0.451803 0.037414 -3.289062
C -0.648021 3.625251 -4.548579
C -0.943042 0.763486 -5.721812
C 0.221545 -2.339986 2.341286
C 0.483655 -2.344619 3.752260
C 0.617887 -1.068500 4.279375
C 0.451803 -0.037414 3.289062
C 0.648021 -3.625251 4.548579
C 0.943042 -0.763486 5.721812
Fe -0.079917 4.228438 1.750161
P -0.703591 2.166575 0.964884
H 2.505056 3.209301 3.797288
H 3.204734 4.138121 2.697160
H 3.455116 2.557226 2.685469
H 3.370298 3.798425 -0.271725
H 2.992499 5.063379 0.633454
H 2.310271 4.873339 -0.801269
H -0.121156 4.751000 5.292434
H -1.292207 3.753290 4.853651
H -1.643783 5.240353 5.329356
H 2.178396 6.458985 2.996129
H 1.661606 5.692886 4.303638
H 1.266805 7.225084 4.064872
H 0.322787 8.012562 0.562345
H 0.634751 6.710788 -0.313181
H 1.613291 7.122937 0.883605
H -2.704076 5.053877 -0.202690
H -1.538602 5.986261 -0.780036
H -2.760831 6.637148 0.021560
H -3.882686 5.001616 2.786830
H -3.136999 3.682025 3.301142
H -3.429928 3.879192 1.740885