148
H58 Pb2 C70 S1 N6 O11
H -0.965744 3.137625 -4.309293
C -3.884217 -7.013837 -2.777354
C 3.045692 1.903936 3.641561
H 5.018231 1.975380 -0.324832
N -1.218167 -1.234508 -1.724620
H 5.253739 -0.076091 1.094734
N 0.593030 0.915198 -2.549230
H 2.186935 -4.233890 2.251847
N 2.611109 -0.132225 -0.718516
H -0.084868 -5.007019 1.563678
N 0.848055 -2.298517 0.047854
H -4.039054 -2.724631 -1.267844
N -4.049463 2.039169 -2.106596
H -4.193890 -0.786706 -2.791370
H -2.015770 0.697038 -5.821421
N 2.970226 -1.790752 3.815725
H -3.743694 1.472719 -7.237138
O -6.184646 2.814850 -1.886790
H -5.540578 2.601793 -6.309339
O 3.251274 -2.510298 5.941527
H -5.747460 2.821229 -4.026685
O -1.458879 -0.599164 1.690531
H -3.314315 1.874592 -1.649757
O -1.315753 1.402550 2.565396
O 1.529856 2.596690 1.901810
H -6.460489 3.524189 2.772439
O 1.653465 0.485257 2.450390
H -5.579612 1.621986 3.765282
O -1.521334 2.611999 -0.424648
H -4.063776 0.452087 0.186891
H -4.026042 -1.096723 2.070868
O -4.166566 -5.485440 3.047207
H -4.870487 -0.761190 3.387629
H 5.448911 -2.984892 0.279106
O -4.413784 -7.003630 -1.442488
C 6.475516 -3.271944 1.993902
C 6.413061 -3.159675 3.366299
H 5.231619 -2.599603 4.917198
H 2.435454 -1.328916 3.291144
H 6.319378 5.843150 -6.281628
H 1.886370 -0.671884 7.237719
H 6.816417 5.929053 -4.765012
H -0.217585 0.184171 7.928343
H -2.088634 -0.198566 6.633621
H 0.202686 -1.941295 3.796865
H -3.151672 -1.695068 4.906725
H -2.256482 -2.132664 3.655667
H -3.034568 0.601354 4.178507
H 3.883631 2.841641 -4.204024
C -1.903871 4.301145 1.520590
C 0.007514 4.811461 -0.313090
H -2.475075 -3.893254 2.095470
C 4.800940 4.584370 -3.748662
H -4.975880 -6.899015 0.962882
C 5.061169 5.511870 -2.750782
H -2.566155 -5.137149 -1.763266
C 4.536807 5.280952 -1.477940
H -5.285553 -6.391251 4.403386
C 3.762624 4.167187 -1.198932
H -4.772901 -7.359576 3.238077
H -5.956945 -6.321083 2.950169
C 4.324720 6.102560 0.788226
H -4.364341 -7.678523 -3.314776
H -2.931778 -7.242203 -2.752026
H -3.996116 -6.127162 -3.181401
H 3.260382 2.858226 3.689405
H 3.853705 1.398723 3.415996
H 2.703491 1.601573 4.507968
Pb 1.145497 -1.396533 -2.135329
Pb 0.086363 0.867101 0.629858
C -2.104248 -0.537926 -2.461224
C -1.802382 0.635800 -3.228131
H 1.294348 3.841861 -3.637559
S -1.650148 4.108501 -0.222778
C -0.555883 1.308142 -3.234115
C -0.349001 2.633687 -3.789509
C 0.893595 3.007494 -3.423564
C 1.533759 1.954967 -2.651906
C 2.702189 2.017481 -1.971311
C 3.212239 1.079775 -1.058103
C 4.419704 1.237973 -0.291049
C 4.543313 0.119105 0.493066
C 3.391797 -0.698676 0.233819
C 3.144579 -1.914504 0.909374
C 1.929308 -2.640428 0.844857
H 7.262710 -3.604926 1.578425
C 1.620936 -3.815431 1.611817
H -6.217174 3.876307 0.481225
H 7.159920 -3.409730 3.897424
C 0.360125 -4.226235 1.258416
C -0.170743 -3.245153 0.320583
C -1.418544 -3.259187 -0.276723
O 5.288870 4.699191 -5.037736
C -1.940304 -2.295965 -1.119590
O 4.860793 6.242897 -0.530164
C -3.320821 -2.162007 -1.529870
C -3.409299 -1.100550 -2.359724
C -2.887539 1.243076 -4.070557
C -2.782146 1.114222 -5.443303
C -3.799643 1.597746 -6.298675
C -4.865282 2.245847 -5.744576
C -4.979783 2.393839 -4.388285
C -3.960985 1.915418 -3.512263
C -5.150234 2.384908 -1.378660
C -5.105995 2.170576 0.108573
C -5.835938 3.107006 0.887219
C -5.988172 2.892673 2.243816
C -5.456003 1.759771 2.830401
C -4.742975 0.815687 2.093215
H -2.789953 3.956682 1.763317
C -4.567320 1.065742 0.707502
H -1.847922 5.251609 1.755672
C -4.192589 -0.405244 2.758165
H -1.215565 3.802311 2.010868
C 4.208918 -2.392925 1.813952
H 0.322391 4.788497 -1.241259
C 5.398166 -2.900690 1.221660
H 0.615149 4.288387 0.252222
H -0.013305 5.738960 0.001126
H 5.584230 6.284998 -2.928579
C 5.262847 -2.681254 3.970671
H 3.398303 4.037056 -0.332345
C 4.142559 -2.315102 3.207042
C 2.585086 -1.914504 5.095701
C 1.213677 -1.391430 5.433275
H 5.465826 6.663908 -5.208593
C 1.118693 -0.768844 6.681970
C 6.030524 5.875470 -5.345406
H 4.636995 6.843794 1.347671
C -0.138215 -0.287872 7.105391
H 4.623984 5.252884 1.174224
C -1.244190 -0.507308 6.325117
H 3.344956 6.115318 0.746592
C -1.176530 -1.157960 5.109701
C 0.111605 -1.553455 4.661234
C -2.426933 -1.401636 4.297542
C -2.890141 -0.147535 3.528580
C -1.810189 0.247960 2.544616
C 2.029496 1.684500 2.612626
C 3.524514 3.234585 -2.221785
C 4.048877 3.462951 -3.507023
C -2.377489 -4.347435 0.127751
C -2.823783 -4.462257 1.420619
C -3.812654 -5.434409 1.746824
C -4.314897 -6.250914 0.750908
C -3.860797 -6.129714 -0.537892
C -2.886238 -5.198387 -0.868113
C -5.119006 -6.465247 3.439232