13
H8 C4 O1
H -0.644439 -1.678948 0.571575
O -0.148881 -0.614263 -0.957906
H -0.492650 -0.020394 1.846413
H 1.102955 -0.048482 1.641722
C 0.100752 -1.093104 0.280901
C 0.232995 -0.007018 1.172229
H 1.046612 1.535170 0.323477
C 0.155346 1.111169 0.416052
H -0.470988 1.763890 0.813559
C -0.320129 0.648379 -0.842708
H -1.284451 0.857035 -0.927928
H 0.160702 1.112506 -1.569780
H 0.932110 -1.628122 0.274614