103
H50 Ir1 C48 N3 O1
N 1.307428 -1.593059 -0.280087
H 4.753402 1.536469 1.896221
H 5.667826 3.287988 2.801708
H -3.481606 4.060436 2.236700
H -5.965098 0.255413 1.335004
H 0.860607 4.009576 3.679627
H -5.985880 1.693820 2.037143
H 2.538782 5.236592 4.270180
H -5.637776 1.347331 -0.773482
H -7.039286 1.725608 -0.100585
H -5.814426 2.753950 -0.032721
H -4.622038 -1.028822 -0.035521
H -4.962349 -4.239410 -1.862434
H -5.390985 -3.037824 -0.899088
H -4.888312 -2.766037 -3.679466
H -6.336582 -2.734249 -3.000190
H -5.294867 -1.553324 -2.717377
H -1.565733 -5.434639 -2.550358
H -3.146491 -5.305898 -2.783893
H -1.241009 -3.778484 -4.288695
H -1.899549 -5.127885 -4.842466
H -2.812674 -3.838882 -4.582245
H -2.548998 0.614617 -2.477653
H -2.985428 -0.289751 -4.602160
C -0.830557 2.231037 2.359109
H -0.552593 -1.896635 -6.705927
C -3.693327 3.273683 2.780512
H -2.095683 -2.081005 -6.324319
H -1.594309 -0.717300 -6.994318
H 3.803908 5.945465 5.616810
H 5.066436 5.064937 6.054390
H 5.245684 6.627317 5.755994
Ir -0.308141 -0.559775 0.397000
H 3.737665 6.994469 3.335501
H 4.884591 6.681357 2.264332
H 6.984908 6.061491 4.145380
H 6.775785 4.481627 4.294872
H 0.299484 -4.097954 -2.113618
H 6.683564 5.168248 2.851727
H 3.900027 -4.568416 -2.097320
H 2.354339 -4.965766 -2.198981
H 3.637650 -3.123652 -3.991885
C 2.808953 1.793952 2.124043
H 3.270062 -4.635171 -4.370710
C 4.135127 2.156335 2.266090
H 2.104951 -3.570273 -4.105442
C 4.719631 3.262558 2.853824
H 5.295042 -2.994910 -1.295421
C 4.135127 4.354475 3.517399
C -1.930723 1.587330 1.860226
H 5.282053 -1.394384 -1.272371
C -3.295864 2.040309 2.045775
C 1.646440 2.523487 2.630872
H 5.304135 -2.214515 0.100395
C 1.704890 3.693285 3.376843
H 4.049400 -0.122864 0.738906
C -4.108974 1.135940 1.411557
C 2.776481 4.475270 3.754638
C -5.609200 1.178854 1.279418
C 0.511204 1.816204 2.167453
C -6.065113 1.806667 -0.022170
H 0.893080 -1.244981 -5.008871
C -3.245207 0.133029 0.823191
H 1.354188 -0.407367 -2.833708
C -3.680338 -0.941405 0.057758
C -2.925678 -1.898224 -0.585755
C -3.423156 -2.986963 -1.414573
C -4.854541 -3.269876 -1.697516
C -5.389686 -2.514911 -2.875598
C -2.332082 -3.646564 -1.883869
C -2.287920 -4.814773 -2.827188
C -2.037233 -4.347490 -4.265682
C -1.151385 -2.982195 -1.344947
C 0.894379 0.660710 1.400062
C 2.310177 0.670246 1.382685
C -0.321389 0.737001 -1.100284
C -0.540903 0.140976 -2.456233
C -1.850191 0.214088 -2.980397
C -2.102177 -0.313592 -4.252689
C -1.086440 -0.866704 -5.009606
C 5.061241 5.492486 3.998299
C -1.356610 -1.440477 -6.379405
N -1.938516 0.411174 1.111372
N -1.546249 -1.915708 -0.562016
O -0.351264 1.949713 -0.985166
C 4.766391 5.811955 5.495086
C 4.691055 6.803741 3.218014
C 6.493925 5.284274 3.807046
H 5.221005 7.550759 3.567144
H -0.978631 3.017790 2.873267
H -4.655809 3.249842 2.961733
H -3.202343 3.321365 3.628294
C 0.159203 -3.330274 -1.573873
C 1.286645 -2.704050 -1.117448
C 2.647890 -3.082327 -1.442222
C 3.002489 -4.231463 -2.343716
C 3.003788 -3.856365 -3.838667
C 3.476586 -2.216104 -0.801454
C 4.967720 -2.203389 -0.819401
C 2.651786 -1.289484 -0.090733
C 3.107699 -0.238891 0.680954
C 0.185181 -0.884187 -4.487016
C 0.470938 -0.378758 -3.181320