75
Zn1 H31 C38 Br1 N4
C -0.256328 0.984853 5.672296
H 3.107851 0.411466 -9.143452
H 2.966617 -1.182549 -9.178634
C -0.589263 1.051111 7.027229
H 1.691375 -0.260033 -9.468202
C -1.109272 -0.037050 7.704299
C 2.661776 -1.594113 1.859174
C -1.293315 -1.214403 6.997168
H -0.877802 0.801369 -4.708996
C 3.444039 -1.924129 0.759617
H -2.742188 1.688207 -3.327518
C 3.158897 -1.679484 -0.580317
Br -4.027792 2.240951 -0.899727
C 4.021541 -2.003129 -1.678790
C 3.412886 -1.566081 -2.796913
H -3.818467 1.819449 1.898116
C 2.158324 -0.969759 -2.406152
C -1.011400 -1.320161 5.637578
N -0.423944 0.329663 -1.560260
C 1.224439 -0.392549 -3.266821
C 0.019761 0.196127 -2.861294
N -1.031273 0.357185 1.249255
C -1.440177 0.047047 9.174335
H 1.769496 -3.240369 -4.353242
H 0.271035 -2.687370 -4.261312
H -2.677253 1.001417 3.930275
H 0.752525 -3.479917 -5.565006
H -0.454863 1.866594 7.496492
H -1.624642 -1.976371 7.456634
H -2.093427 -2.515354 4.363863
H -0.529428 -2.851741 4.355219
H -1.444372 -3.328289 5.579469
H -0.151758 2.442529 4.234746
H -1.690051 0.967014 9.402144
C -0.196131 -0.263856 3.495833
H -2.187462 -0.554372 9.376171
C 1.010247 -0.849984 3.098301
C -1.294371 -2.617289 4.920933
C 1.541279 -0.377259 -4.735719
C 2.006700 -1.391516 3.988821
C 1.466207 -1.557161 -5.487442
C 3.020479 -1.848951 3.228439
C 1.799071 -1.512564 -6.840213
H -0.656863 -0.217985 9.700218
Zn 0.524513 -0.311511 0.118927
C 2.177217 -0.345404 -7.466622
C 2.222746 0.810288 -6.717839
H 4.264999 -2.366273 0.942104
C 1.918116 0.821756 -5.356037
H 4.862529 -2.442725 -1.626755
H 3.748061 -1.637435 -3.683330
C 2.003979 2.115061 -4.579534
C 1.026745 -2.854289 -4.862219
C -0.942900 0.768240 -3.761012
C 2.515724 -0.344130 -8.944866
C -1.960683 1.252433 -3.009073
C 0.386079 2.169851 5.008089
C -1.632912 0.979756 -1.639478
N 1.435639 -0.983392 1.795930
N 2.022151 -1.057550 -1.031760
C -2.421289 1.293207 -0.527319
C -2.165730 1.011611 0.810755
C -2.986703 1.360739 1.930593
H 1.956840 -1.420823 4.937250
H 3.818693 -2.261790 3.537580
H 1.764809 -2.315306 -7.347919
C -2.363120 0.918595 3.038226
H 2.469789 1.624497 -7.140638
C -1.139510 0.298063 2.627498
H 1.100345 2.450174 -4.402233
H 2.465197 1.955787 -3.729946
H 2.502339 2.777641 -5.101893
H 0.441721 2.912706 5.645992
H 1.287610 1.927755 4.709714
C -0.492141 -0.201421 4.968088