154
Tb1 H57 C88 N8
Tb -0.026813 0.084944 0.061895
C -3.133054 -5.208323 -5.367469
H -4.084778 0.073321 3.787227
C 3.173319 -0.347159 -2.399340
H 0.962243 -1.425709 -1.169081
C -5.380981 -2.439306 -0.717130
H 1.979659 4.001223 3.262880
C 0.441519 2.143247 -7.117303
H -2.628352 -4.704089 1.373698
C -5.071751 -1.106075 -0.888817
H -2.432880 0.286980 -4.827875
C -3.801184 -4.413513 -4.473245
H -0.112852 -4.668194 -4.296515
H 1.631975 3.496989 -3.933414
C -1.500383 3.332899 -6.558771
H 2.772762 4.384100 -1.909642
H 2.167120 -0.967624 -4.964592
C 6.169488 0.437395 -5.355922
C 1.454128 -0.856522 4.278752
C 2.280878 5.748097 0.951231
C -7.358132 -0.745419 -1.685370
C 5.597492 1.483469 -4.683804
C 5.007872 5.385732 0.881631
H -1.269662 -5.844172 -5.938574
C -1.449111 2.821827 -5.257624
H -2.609125 -4.863051 -1.097297
C -6.638731 -2.943541 -1.035310
H -0.008707 -2.184625 -4.972127
C -7.596864 -2.087196 -1.506866
C -4.294670 -0.494157 1.818621
H 1.234622 1.093755 -5.569019
H -3.589689 -3.138397 -2.897911
H -0.651201 3.320934 -8.344114
N -2.195750 0.237411 1.186178
N 2.548450 -0.099315 0.012402
N -1.691048 0.386117 -1.705110
C 4.490352 6.657429 1.101803
N 0.794009 -1.095820 2.074973
C 4.676210 0.512603 0.738834
H -0.128875 -4.827156 3.775553
N 1.016719 -1.512882 -2.041264
C 5.825008 -0.863359 -5.036059
N 0.108255 1.931297 1.643893
N 0.670638 2.021889 -1.229073
H -3.434273 -2.558955 3.664987
C 3.114037 6.833484 1.144505
C -2.977638 1.895403 7.360920
N -0.808220 -2.422213 0.005484
H -4.192127 -0.735164 -3.389509
H -5.856843 0.673275 -1.491813
C 0.369419 -1.661588 4.267380
H 4.205155 1.972320 -3.277834
H -3.618529 -5.697175 -6.021786
H 5.517380 0.569009 -1.148318
H -4.719261 -3.027295 -0.371454
H 4.049739 2.421858 3.183645
C -2.032323 1.497143 4.759134
H 1.090422 1.888566 -7.761790
C -1.923371 0.538242 5.734308
H 2.747126 7.694956 1.305974
H 4.613723 -1.998314 -3.881845
H -4.749703 -4.358816 -4.509854
C 5.804179 1.006582 5.509560
C 4.169906 4.303764 0.691507
H -2.194148 3.934562 -6.801396
H 1.340369 5.878002 0.962401
H -8.039079 -0.165977 -2.006437
H -2.136468 3.042323 -4.638960
C -2.373597 0.721134 7.030002
C -3.490351 -4.023799 5.059515
H -6.827794 -3.868256 -0.927386
H 6.803970 0.604904 -6.044986
H -8.457261 -2.432469 -1.717306
H -5.153465 -0.897544 1.779228
C 5.294671 1.991122 4.741924
H 5.869871 2.373998 -4.869356
C -1.543643 -5.394634 5.122186
H 5.949982 5.259246 0.864408
C -2.791779 -5.081837 5.590154
C -3.125043 2.869687 6.422960
H 0.220411 2.996173 4.689240
H 1.929990 -0.553981 5.044429
C -2.658794 2.656028 5.111759
C -3.709856 0.028880 2.917108
C -0.410867 1.924460 2.931820
H 5.379589 0.758738 1.326356
C -0.035945 -1.818841 2.893172
H 6.256008 -1.589799 -5.469669
H 5.073563 7.397543 1.221787
C 1.316336 3.380758 2.986292
C 1.748938 -0.543726 2.894826
C -2.157297 -4.134902 0.773752
C -2.428073 0.233992 -3.879487
H -3.294879 2.035563 8.244258
C 0.587322 2.182560 -2.595263
C -0.359596 1.553549 -3.442380
C 1.140091 2.856013 1.646999
H -0.050365 -2.053011 5.024826
C 1.574295 2.972243 -0.815860
C -1.553256 1.268101 3.342476
H -1.519609 -0.290754 5.508660
C -1.058167 -4.587858 -4.345230
C -1.298502 -3.148653 -1.059917
C 4.469523 -0.612096 4.341284
H 4.533612 3.442292 0.527136
C -0.965238 -2.974307 -2.421022
C 0.095437 -2.179497 -2.859160
C 1.494183 3.213250 -3.037634
C -1.678230 -3.560587 3.550469
C 5.403622 -0.304428 5.323875
C 2.114246 3.698683 -1.937238
C 1.673633 -1.239398 -4.201858
H -2.263044 0.037426 7.680943
H 6.441867 1.215113 6.183167
C -1.413862 0.738227 -3.001439
H -4.350748 -3.805013 5.395385
C 3.323929 0.182714 1.113979
C -3.709856 -0.564237 -0.621896
C -3.360571 -0.326648 0.706025
C 3.428074 -0.001887 -1.044473
C 2.924974 0.056228 2.474121
C -1.011703 -2.719626 2.470189
H -1.059770 -6.126201 5.488389
H -3.177916 -5.599746 6.286522
C 0.359805 2.826955 3.766395
H -3.540020 3.691846 6.651957
C 4.221177 -0.070258 -3.413407
C -1.332149 -3.029004 1.135370
H 5.567049 2.888489 4.895565
H -2.783768 3.334608 4.458265
C -2.408847 0.512603 2.519541
C -0.409265 1.997959 -4.860643
C -1.740717 -5.302333 -5.317616
C 1.835458 3.338027 0.517797
C -2.147683 -4.222075 -0.571308
C 4.613723 1.240752 -3.725756
C 0.479972 -1.924816 -4.200844
C 3.947196 0.413466 3.529020
C 0.516824 1.666361 -5.807896
C -3.112225 -3.687073 -3.510063
C 4.756322 0.408338 -0.602409
C -0.590317 2.985917 -7.457500
C -1.708672 -3.762281 -3.439546
C 2.782375 4.481528 0.737559
C 4.379798 1.719348 3.731721
C -2.931173 -0.210418 -1.738674
H 4.184326 -1.509463 4.215056
C -0.997283 -4.618625 4.099665
C 4.854058 -1.100948 -4.081410
C -2.939184 -3.278558 4.036845
H 5.767328 -0.994973 5.867905
C 2.027726 -1.013775 -2.841067
C -3.383002 -0.333485 -3.096433
C -6.052315 -0.248022 -1.371684