174
Ni2 H88 C73 N10 O1
Ni 3.655342 -1.850389 -1.831185
C 7.006704 0.192817 -0.393394
C 7.025257 -0.867668 0.443975
Ni -3.725076 2.080707 1.795398
C 5.858469 -1.667761 0.114581
C 5.388275 -2.731074 0.857461
H -0.768305 -4.331083 -0.203107
N 5.192893 -1.130182 -0.954470
H 0.107148 -1.106670 -0.216664
H 2.603059 -2.264560 -5.930362
C -8.418374 4.984711 0.884404
H 3.490108 -5.282143 3.321770
C -8.431999 6.317080 1.618895
C 4.938664 -1.202660 -7.766445
C -6.545136 5.348342 -1.711357
C 5.667725 1.999832 -5.272633
H 4.754007 -4.016420 4.820650
C -5.749981 6.642880 -1.748377
C 4.939533 3.282526 -4.850623
H 3.565478 -3.086573 4.286904
C 8.003039 1.313760 -0.509861
H 0.170923 -4.316941 2.046974
H 1.269587 -4.806613 3.104818
C 9.042857 1.056019 -1.609166
C 8.007678 -1.184629 1.535576
H 0.666626 -6.210222 0.677103
C 7.611694 -0.586946 2.876641
H 0.170923 -6.671610 2.127063
H 1.727606 -6.706966 1.766699
H 0.402831 -3.111322 -6.353659
H -0.605970 -4.173751 -5.713140
H 2.133445 -4.739438 -6.312080
H -1.736522 -4.046472 -3.987219
H 0.892737 -5.262698 -7.179394
H -1.777105 -3.885605 -2.388216
H 1.113049 -5.801868 -5.687011
H 4.275696 0.738881 -7.457685
H -0.620464 -6.132441 -3.760896
H -1.991620 -6.189009 -2.935586
H 3.110358 -0.342994 -7.299799
H -0.603071 -5.966270 -2.169735
H 4.809085 -1.161471 -8.736672
H 4.693131 -2.094854 -7.442072
H 4.049586 3.303916 -5.262453
H 4.849669 3.300380 -3.876026
H -7.441461 2.748836 6.703969
H -8.064714 2.925613 5.243442
H -2.272809 1.742975 5.794195
H -7.537123 3.593830 3.142077
H -4.206343 3.860763 -2.047348
H -3.675853 2.496045 -3.806350
H -2.533706 1.468970 -4.252922
H -2.026407 4.136535 -3.344839
H -1.910453 3.657470 -4.867191
H -0.878462 3.107693 -3.772423
C 4.097417 -3.214913 0.731906
H -1.426344 -0.258141 -3.516985
C 3.417636 -3.997681 1.738435
H -1.066887 -1.142026 -2.232133
C 2.098369 -4.033744 1.387945
H 0.394134 1.214412 -2.958351
C 1.994010 -3.363406 0.098869
H 0.901433 -0.268747 -3.274122
C 0.890707 -3.340955 -0.751418
C -1.261980 -4.260372 -3.145871
H 0.782580 0.229764 -1.758760
C 1.027533 -3.183800 -2.140093
C -1.105152 -5.773583 -2.988650
H 0.530380 -1.928683 2.223099
C 0.130629 -3.688499 -3.167865
H 1.089859 -1.479670 3.652459
C 0.761129 -3.454092 -4.363069
H 1.716010 -0.187430 1.175612
C 1.979516 -2.742918 -4.070913
H 2.736406 -1.062476 2.047200
C 2.733797 -2.058084 -5.013150
H 2.220411 0.349972 2.597280
C 3.664618 -1.091644 -4.681443
H -0.188535 1.021725 6.007928
C 4.228155 -0.117250 -5.608665
H 0.956511 0.148446 5.310562
H -1.484321 -0.974088 6.284197
H -6.783422 5.062847 6.654124
H -0.098671 -1.050102 7.078095
H -8.371992 4.886070 6.574685
H -0.263905 -1.817314 5.683503
C -7.345799 3.236740 5.845968
H -7.534224 5.214875 5.248893
H 6.099074 1.573269 -2.534737
H -5.116582 2.976878 7.805799
H 5.974423 -3.146677 1.479423
H -3.614977 2.542007 7.460269
H 4.925039 -5.013442 2.665279
H -5.818104 0.737114 7.685706
N 3.230660 -2.864541 -0.276469
H -4.612182 0.857322 8.731919
N 2.157795 -2.639327 -2.713687
H 5.043892 -2.909796 3.702743
H -4.342589 0.281029 7.264743
N 4.076835 -0.836555 -3.402001
C 4.078864 -4.580515 2.944161
H -8.940167 4.327455 1.410241
C 4.387592 -3.556269 4.036842
N -0.413776 -3.525157 -0.187031
C 1.036230 -4.788051 2.141846
C 0.886649 -6.223127 1.632444
N -0.666266 -1.236602 0.182132
C 0.340216 -3.884721 -5.739068
N -2.970852 1.695422 0.067527
C 1.195667 -5.023165 -6.277641
N -2.291652 1.069631 2.587254
C 4.057992 -0.152605 -7.088222
N -4.508983 2.418793 3.532270
N -5.103827 3.179288 1.003998
C -1.131241 -2.512048 0.372971
H 5.878761 -1.025353 -7.556026
C -3.283059 2.340481 -1.097865
C -7.525238 4.734042 6.105739
C -2.627628 1.725827 -2.224686
H 5.768605 1.992230 -6.257454
C -1.937702 0.655796 -1.748132
H 6.574485 1.995766 -4.874565
O -2.151637 -2.717109 1.022066
C -2.115981 0.663751 -0.300754
C -1.436490 -0.115835 0.630664
H 5.455529 4.062289 -5.145421
C -1.400835 0.193524 1.992566
C -0.409138 -0.255843 2.960125
H -8.876393 5.098202 0.014829
H 8.467435 1.426544 0.356323
C -0.710908 0.372776 4.126204
H -8.006737 6.211897 2.495066
H 7.522410 2.156633 -0.708914
C -1.899147 1.140165 3.910508
H -9.357602 6.614949 1.737507
H 9.592190 0.282797 -1.363558
C -2.654878 1.701432 4.926335
H -7.940064 6.982645 1.096634
H 9.615380 1.845505 -1.708073
C -3.930662 2.204363 4.753541
H -7.511034 5.561358 -1.752991
H 8.583389 0.876768 -2.457459
C -4.849888 2.511071 5.835082
H -6.319606 4.806520 -2.508688
H 8.899364 -0.837969 1.277855
C -6.016386 2.894677 5.238089
H -5.989137 7.196545 -0.975895
H 8.078989 -2.167332 1.629469
C -5.780129 2.880181 3.812401
H -5.954350 7.127602 -2.573864
H 7.513713 0.383560 2.786505
C -6.649205 3.386294 2.873767
H -4.792877 6.438172 -1.717439
H 8.305100 -0.786704 3.538780
C -6.289458 3.604790 1.566949
H 6.760012 -0.975855 3.168769
C -7.042869 4.419379 0.635457
C -5.093681 3.729241 -0.249698
C -4.197936 3.372505 -1.232695
C -2.741553 2.213555 -3.635191
C -1.805804 3.383465 -3.931058
C -1.059060 -0.222785 -2.598434
C 0.384568 0.283857 -2.652557
C 0.795045 -1.145031 2.767027
C 1.973428 -0.448883 2.085236
C -0.019242 0.218450 5.453890
C -0.509728 -1.015100 6.190630
C -4.568699 2.332173 7.290073
C -4.861773 0.928033 7.787862
C 4.935765 0.761686 -4.842442
C -6.274673 4.545951 -0.481454
C 4.882426 0.281383 -3.480678
C 5.679030 0.725270 -2.448523
C 5.896444 0.004550 -1.298752