78
Ni1 H34 C37 N6
Ni -0.031124 0.009840 -0.119012
H -0.646802 0.702941 4.727525
H -0.011964 -1.873098 4.400850
H -1.500242 -1.276815 4.253750
H -0.075620 -0.566483 -5.155906
H -0.794039 -4.540872 -2.140970
H -0.594751 6.135184 -4.735707
H -1.084642 -4.891699 0.292158
H 0.502153 -6.163603 4.407818
H -3.416989 -5.597073 4.002479
H -1.786773 3.328567 -3.702279
H -2.162059 4.883116 -3.624328
H -4.258688 -3.971863 2.346441
H -3.238469 -2.903265 1.730738
H -3.770338 -2.730951 3.231057
H -1.709177 4.100882 -2.302648
H 1.357420 -0.257805 5.642128
H 1.813186 0.947157 4.693681
H 1.920679 -0.562764 4.175753
H 2.574585 7.288080 -5.815812
H 1.474079 8.103784 -4.988467
H 1.038615 7.234774 -6.259536
H 0.861067 4.493859 1.912622
H 1.092267 4.879397 -0.527890
H 3.349584 5.589729 -4.219453
H 4.203573 3.769890 -3.116967
H 3.269946 2.474433 -3.014754
H 3.390134 3.474848 -1.772275
H 1.733875 -3.402853 3.494467
H 0.630184 1.806249 -4.832780
H 1.546963 -3.935912 1.997348
H 2.077973 -4.925170 3.138542
H -1.688887 -7.041291 6.151808
H -1.145005 -7.985921 4.979882
H -2.693905 -7.589226 5.034219
C -0.510616 -1.419378 2.467996
C -0.739343 -2.628058 1.887682
C -0.678499 -2.818967 0.500974
C -0.442259 -2.479297 -1.639776
C -0.061456 -0.696649 -2.989697
C 0.028712 0.689305 2.755993
C -0.044920 0.156246 4.144913
C -0.568565 -1.204914 3.926336
C 0.062404 -0.120201 -4.328274
C -0.727331 -3.881366 -1.459628
C -0.879839 -4.069797 -0.136329
C -1.005008 -3.825581 2.760646
C 0.059221 -4.569385 3.263357
C -0.223345 -5.661536 4.054453
C -1.499688 -6.058231 4.353623
C -2.524921 -5.321866 3.827266
C -2.326215 -4.208640 3.058611
C -3.504555 -3.379299 2.546195
C -1.574270 4.182701 -3.270348
C 1.648690 7.283121 -5.494681
C 1.394160 0.062031 4.715973
C 0.389316 1.416992 -2.718203
C 0.627335 2.645507 -2.137551
C 0.629684 2.831458 -0.775852
C 0.460078 2.473193 1.374076
C 0.761171 3.849229 1.222947
C 0.878642 4.053775 -0.110740
C 0.913356 3.809559 -3.014227
C -0.131321 4.545925 -3.549930
C 0.125666 5.652952 -4.347876
C 1.426734 6.054606 -4.578374
C 2.455190 5.319480 -4.047705
C 2.231499 4.190139 -3.266017
C 3.368657 3.411625 -2.749701
C 0.413091 1.178975 -4.154060
C 1.478591 -4.173929 2.946067
C -1.781407 -7.275589 5.205391
N -0.183221 -0.261524 1.788195
N -0.410111 -1.807395 -0.428536
N 0.108367 0.252940 -2.035222
N -0.304788 -1.975990 -2.847419
N 0.351293 1.858316 0.169820
N 0.296091 1.952531 2.606545