76
Ni1 H32 C37 N6
Ni -0.119653 -0.005724 -0.015126
C -2.397437 1.691015 -0.902403
H -0.197635 5.010857 0.179129
C -1.770320 2.884820 -0.615288
N 2.451416 1.705891 1.270540
H 2.009916 4.376145 1.123933
H 4.122388 -2.370151 1.619462
C -2.957841 5.986479 -2.433517
C -2.344307 4.769121 -2.187645
C -1.605213 4.108376 -3.295399
H 4.192277 0.564153 3.472015
H 5.336065 -0.272625 2.727797
C 0.326746 -2.944119 -0.064598
C -0.335132 -4.150320 -0.480297
C -1.539152 -3.799493 -0.958102
H 4.863572 1.136882 2.136738
C -3.956381 0.281508 -1.586498
C -3.727646 1.595561 -1.464266
N -0.502583 -1.817257 -0.304494
C 2.165427 -1.711885 0.887237
N -1.827377 0.450104 -0.737147
N -2.721091 -1.742877 -1.235347
C 1.590187 -2.888334 0.516777
C 2.296010 -4.192469 0.731254
C 3.036174 -4.762718 -0.319088
C 2.178203 -4.835859 1.967814
C 2.816420 -6.074291 2.098684
C 4.153129 -8.039171 1.287938
C 3.634868 -5.996192 -0.120054
C 3.144087 -4.088336 -1.647974
C 3.521882 -6.670573 1.081461
C -2.477566 4.180277 -0.918393
C -3.228050 4.791435 0.085861
C -3.854483 6.023669 -0.213868
C -3.693125 6.637307 -1.451117
H -1.948515 3.199696 -3.421920
H -0.650927 4.069946 -3.074492
H 0.015502 -5.031727 -0.427482
H -2.195172 -4.385858 -1.316795
C -0.511206 2.928208 -0.064603
C -3.352739 4.175318 1.455724
H -4.764018 -0.111468 -1.895377
C -4.285644 8.007145 -1.702294
H -4.311108 2.308372 -1.695591
H 4.135553 -6.386688 -0.826682
H 2.758498 -6.525532 2.933369
H 3.505506 -8.737107 1.055573
H 4.416084 -8.138345 2.226379
C 2.494775 0.419112 1.234866
H 3.652459 -4.657346 -2.264026
H 3.603649 -3.229243 -1.543251
H 2.246180 -3.935857 -2.011790
H 4.944384 -8.124709 0.716471
H -4.397554 6.441439 0.442747
C 1.392035 2.359199 0.774851
C 1.337466 3.786061 0.804050
C 0.141164 4.129450 0.287003
C 1.368860 -4.227179 3.104710
H -4.351691 8.495576 -0.854970
H -5.178635 7.910450 -2.093727
H 0.634473 -3.695360 2.733692
H -3.889406 3.357135 1.398024
C 3.505798 -1.656099 1.504398
C 3.671681 -0.273865 1.892104
H -3.789229 4.810030 2.061601
H -2.460773 3.957136 1.797926
H -3.710319 8.504253 -2.321368
C 4.569578 0.324897 2.600083
H -2.873794 6.385654 -3.292344
H -1.729391 4.621600 -4.121565
N 1.605403 -0.463535 0.733490
C -2.804459 -0.427584 -1.180824
C -1.655324 -2.380068 -0.831428
H 1.947691 -3.651972 3.646462
H 1.003443 -4.943710 3.665156
N 0.268697 1.857131 0.241979