13
H8 C4 O1
H -1.816660 0.419014 -0.329013
H -1.378999 0.983170 1.110238
C -1.065027 0.490231 0.311839
C -0.587716 -0.846149 0.689728
H -0.321364 -0.867095 1.643645
O 0.027716 1.163309 -0.284719
H -1.291149 -1.526209 0.539158
C 0.553529 -1.096109 -0.163668
C 1.070015 0.202567 -0.529114
H 1.240813 -1.619769 0.318105
H 0.279493 -1.598823 -0.971198
H 1.869124 0.419014 0.014586
H 1.326736 0.213739 -1.485578