21
H10 C9 O2
H 2.685479 -2.077599 0.350341
H 1.647250 -2.886049 -0.512699
H 2.249884 -4.121360 1.382272
H 1.736768 -2.957192 2.300109
H 0.003618 1.460178 -2.038467
H -1.600330 3.064143 -1.785660
O 1.488516 -0.521171 -1.441431
H -2.798216 3.225833 0.159696
O 0.807438 -1.381038 0.520606
H -2.489054 1.693012 1.856713
C 1.787526 -2.443018 0.337756
H -0.862034 0.040540 1.608900
C 1.607567 -3.409924 1.463681
H 0.720688 -3.778578 1.432186
C -0.489195 1.502218 -1.250896
C -1.440674 2.459423 -1.096927
C -2.168818 2.546735 0.062679
C -1.978707 1.647739 1.079616
C -1.005079 0.654962 0.927579
C -0.252940 0.587699 -0.231922
C 0.773292 -0.480102 -0.463845