42
H24 C12 O6
O -2.574251 -0.678119 0.113911
O -0.685740 -2.258874 -1.280177
O 2.095854 -1.546697 -1.267546
O 2.567779 0.816057 0.334097
O 0.133251 2.560194 0.080144
O -1.470022 1.373231 1.540144
H -2.685306 -2.620549 0.224245
H -2.270618 -3.208444 -1.987030
H -0.316856 -3.628768 -2.720132
H 1.081058 -3.077180 -1.016336
H 1.793974 -2.978034 -2.405220
H -3.789096 -1.955850 -0.713817
H -2.191742 -1.659807 -2.413973
H -0.283795 -2.081528 -3.253084
H 3.928269 -2.020085 -0.687738
H 2.879259 -1.860893 0.521677
H 3.720720 0.291001 -1.144765
C -0.120845 -2.687577 -2.486647
C 1.194302 -2.476717 -1.796921
H 4.343351 0.021490 0.296450
H 2.575497 2.741729 -0.255450
H 3.063969 2.519697 1.285153
H 0.860470 1.040882 1.083474
H 0.914422 2.431722 1.872215
C -2.831711 -1.925128 -0.465858
H 0.544274 4.147930 1.276518
H -3.333227 1.612020 0.974716
C -2.028437 -2.300767 -1.676295
H -1.117022 2.966554 2.529842
H 1.171385 2.726368 1.816460
H -2.688069 -0.949026 2.069226
H -1.531284 3.210928 1.027317
H -4.087307 -0.556630 1.380947
C 3.155740 -1.496425 -0.355170
H -3.157911 1.302013 2.535119
C 3.512441 -0.045538 -0.235611
C 2.470903 2.194330 0.561766
C -2.832433 1.064621 1.631582
C 1.045635 2.008605 0.986672
C -3.112558 -0.386266 1.373638
C 0.445045 3.163450 1.303940
C -0.938858 2.666322 1.604880