26
Co2 N6 O18
O 0.174006 0.943286 -2.892187
O -0.174006 -0.943286 2.892187
Co -1.119286 -1.604037 -0.183538
Co 1.119286 1.604037 0.183538
N -3.367990 -2.535457 0.563190
N 3.367990 2.535457 -0.563190
N 0.197206 -3.726582 -0.389979
N -0.197206 3.726582 0.389979
N 0.032770 0.121666 -1.991663
N -0.032770 -0.121666 1.991663
O -3.165304 -1.688302 -0.389635
O 3.165304 1.688302 0.389635
O -2.363973 -2.808830 1.220522
O 2.363973 2.808830 -1.220522
O -4.478067 -2.987574 0.765818
O 4.478067 2.987574 -0.765818
O 0.412322 -2.782544 0.447519
O -0.412322 2.782544 -0.447519
O -0.661575 -3.490760 -1.247105
O 0.661575 3.490760 1.247105
O 0.847432 -4.752480 -0.294234
O -0.847432 4.752480 0.294234
O -0.879297 0.024033 1.074152
O 0.879297 -0.024033 -1.074152
O -0.993674 -0.593309 -1.963165
O 0.993674 0.593309 1.963165