16
H10 C4 O2
O -0.744356 -0.527443 1.038444
O 0.656286 -0.257547 -1.209054
H -0.254012 1.367656 1.389126
H 1.035676 -0.851707 -3.048122
H -0.413881 -0.925491 2.946614
C -1.176240 -0.676954 2.383027
H -1.858665 -1.379849 2.428873
C 0.122992 0.590976 0.905805
H -0.588066 1.247271 -0.890635
H 1.684696 0.561851 -2.674739
H 0.114641 0.455057 -2.963369
H -1.555630 0.169627 2.699292
C 0.269737 0.913298 -0.528051
H 0.955742 1.616194 -0.648093
H 1.007043 0.379331 1.296143
C 0.890124 -0.003184 -2.578417