117
Ni1 Mo4 H48 C48 N4 O12
C 0.429730 -1.249196 -3.847849
C -0.375027 -0.097354 -4.030183
Ni 0.014052 0.005742 0.001182
C -0.717828 0.401720 -2.782032
Mo -1.771448 1.801372 2.964893
C -1.402618 1.715891 -2.402519
Mo 1.737234 -3.049317 1.833047
C -0.496079 2.489542 -1.462958
Mo -1.746966 -1.775210 -2.979516
C -0.382084 3.862428 -1.256562
C 0.421316 4.043752 -0.088939
Mo 1.778436 3.017974 -1.805587
H 0.765474 1.779786 4.542887
C 0.754346 2.786569 0.406493
C 1.436693 2.387655 1.711927
H -0.713757 -0.263136 4.856445
C -1.779347 -2.532283 3.628594
H -0.803325 -4.538941 1.762479
H 0.667764 -4.860144 -0.301764
C -2.979831 -2.041843 4.436222
H 0.811616 -1.784535 -4.532638
C -2.754554 -1.447790 1.534169
H -0.635046 0.272203 -4.866106
C -3.474627 -2.703246 1.064310
C 1.787094 -3.623684 -2.525008
H -0.765327 4.548007 -1.791756
H 0.681335 4.877845 0.284239
C 2.941437 -4.490588 -1.995447
C 2.763658 -1.554858 -1.392373
H -1.945998 -3.468263 3.355586
C 3.509245 -1.069599 -2.628031
H -0.982462 -2.530556 4.216681
C -2.724426 1.477579 -1.617927
H -2.860678 -1.093775 4.654714
C -3.444228 2.743396 -1.155094
H -3.050671 -2.561640 5.264531
C -1.666436 2.541349 -3.679086
H -3.797073 -2.155819 3.908179
C -2.848736 2.069905 -4.523762
H -3.381802 -0.914178 2.084607
C 1.719782 3.653473 2.550779
H -2.518691 -0.905543 0.738634
C 2.872768 4.511742 2.026656
H -2.887820 -3.210955 0.465824
C 2.747373 1.601916 1.438281
H -4.291054 -2.451119 0.584984
C 3.494589 1.118384 2.677051
H -3.707504 -3.254127 1.839639
C -2.559132 2.572433 4.529928
H 0.971753 -4.184926 -2.577858
C -1.946812 3.572308 2.202425
H 2.008572 -3.333565 -3.445520
C -3.583466 1.546655 2.332358
H 3.794506 -4.034686 -2.161780
C 3.618355 -2.661801 1.598995
H 2.939537 -5.355765 -2.456180
C 2.370644 -4.671912 2.625026
H 2.828256 -4.632193 -1.032414
C 1.960259 -2.266340 3.584036
H 2.524267 -0.769118 -0.840482
H 3.376521 -2.119554 -0.856696
C -2.594145 -2.464934 -4.554900
C -1.974225 -3.561515 -2.248538
H 3.721223 -1.832889 -3.204073
C -3.520768 -1.497870 -2.350681
H 4.340058 -0.625785 -2.356326
C 3.593656 2.437735 -1.548982
H 2.947680 -0.435826 -3.120449
C 2.003415 2.261591 -3.562457
H -3.341089 0.959509 -2.192960
C 2.513682 4.615356 -2.572826
H -2.521405 0.923244 -0.822839
H -2.866107 3.242471 -0.541549
H -4.272055 2.496450 -0.693236
H -3.655935 3.301185 -1.932974
H -1.823859 3.482510 -3.416234
H -0.852181 2.520626 -4.240702
H -2.781967 1.102841 -4.668358
H -2.838965 2.532715 -5.387044
H -3.685791 2.271953 -4.055484
H 0.898469 4.207808 2.576301
H 1.924432 3.380623 3.479453
H 3.718509 4.035118 2.157562
H 2.896110 5.361377 2.513992
H 2.741402 4.687886 1.071984
H 2.529695 0.814449 0.879766
H 3.354808 2.180427 0.913484
H 3.704938 1.885127 3.252627
H 4.326487 0.676297 2.406359
H 2.934109 0.484611 3.171466
N -0.175805 0.444720 1.811231
N 0.189795 -1.811302 0.443121
N -0.139978 -0.435481 -1.816880
N 0.189253 1.813461 -0.443990
O -3.027872 3.041287 5.497054
O -2.064608 4.637806 1.765067
O -4.691397 1.420591 1.969502
O 4.761842 -2.471842 1.480801
O 2.733531 -5.678004 3.100962
O 2.108725 -1.812166 4.660861
O -3.114455 -2.884571 -5.525369
O -2.149019 -4.625286 -1.831970
O -4.632499 -1.335541 -1.964780
O 4.713801 2.085448 -1.420626
O 2.154323 1.807417 -4.639832
O 2.949037 5.606942 -3.017563
C 0.511969 1.441314 2.482514
C 0.381960 1.247901 3.854076
C -0.437182 0.102966 4.023971
C -0.771298 -0.399562 2.765850
C -1.457173 -1.698190 2.362790
C -0.533807 -2.475295 1.449549
C -0.413025 -3.851635 1.237656
C 0.409373 -4.029505 0.078651
C 0.762760 -2.772322 -0.389760
C 1.466006 -2.371681 -1.678684
C 0.554854 -1.452971 -2.464101