16
H10 C4 O2
O 0.032461 1.207816 -0.619729
H 1.103583 -1.273387 1.112676
C -0.963741 -2.528542 0.338048
O -0.692156 -1.139820 0.264679
C 0.136646 2.648354 -0.689657
H -0.343310 -3.015740 -0.244352
H -0.138450 3.037081 0.167065
H 1.063781 2.900830 -0.881415
H -1.883852 -2.697823 0.049327
H -0.446325 2.983406 -1.402989
C 0.844874 0.648570 0.407953
H 0.547536 0.972681 1.295383
H -0.850190 -2.836137 1.262495
C 0.693864 -0.841927 0.320429
H 1.790739 0.908684 0.279482
H 1.148066 -1.182553 -0.491481