99
Co1 H38 C54 N6
C -2.262443 0.238128 1.807446
N 1.625017 0.702277 0.911515
N -0.077024 1.634609 -1.115246
N -1.198590 0.889281 1.305337
H 5.571203 -3.383574 5.654690
H -5.527938 -5.026255 1.874437
H -4.970269 -7.041601 0.909191
H 5.527938 5.026255 -1.874437
H 4.970269 7.041601 -0.909191
H -5.571203 3.383574 -5.654690
H 1.222609 -3.674171 3.321741
H -0.784826 -4.523092 2.206436
H -4.128395 -2.659772 -1.412846
H -4.275772 -0.602720 -2.735410
H 2.647918 -0.679406 5.009664
H 4.211433 -1.673625 6.449128
H 5.399980 -4.123521 3.502663
H 3.915897 -3.099704 2.063245
H -4.171236 -3.185806 1.604137
H -3.061030 -7.204389 -0.366888
H -1.668093 -5.366631 -0.644985
H 0.291669 -2.634210 -1.328993
H 1.831480 -3.767001 -2.605212
H 3.722136 -2.642282 -3.401819
H 3.951586 -0.391499 -2.904291
H -2.359894 -0.668643 1.624546
Co 0.000000 0.000000 -0.000000
H -1.222609 3.674171 -3.321741
H 0.784826 4.523092 -2.206436
H 4.128395 2.659772 1.412846
H 4.275772 0.602720 2.735410
H -2.647918 0.679406 -5.009664
C -2.408124 -0.043051 -1.843264
H -4.211433 1.673625 -6.449128
C 2.154020 -1.197368 2.415427
H -5.399980 4.123521 -3.502663
C 1.039408 -1.950768 2.071276
H -3.915897 3.099704 -2.063245
C 0.740514 -3.245002 2.653001
H 4.171236 3.185806 -1.604137
C -0.366799 -3.709150 2.039192
C -0.787996 -2.725694 1.081742
C -1.907053 -2.872338 0.278556
H 3.061030 7.204389 0.366888
C -2.299335 -1.892918 -0.639476
H 1.668093 5.366631 0.644985
C -3.513175 -1.961531 -1.415824
C -3.593093 -0.834122 -2.147423
H -0.291669 2.634210 1.328993
C 3.131500 -1.775872 3.386677
H -1.831480 3.767001 2.605212
C 3.207514 -1.354775 4.700940
H -3.722136 2.642282 3.401819
C 4.137924 -1.956150 5.565869
H 2.359894 0.668643 -1.624546
H -3.951586 0.391499 2.904291
C 4.952739 -2.988039 5.083950
C 4.864037 -3.423935 3.801867
C 3.968108 -2.815833 2.948299
C -2.770965 -4.079124 0.452332
C -3.937815 -3.994366 1.205794
C -4.751067 -5.097559 1.369729
C -4.422977 -6.298964 0.790317
C -3.279712 -6.394484 0.034167
C -2.443240 -5.289945 -0.137817
C 1.044805 -2.182170 -1.633460
C 1.962285 -2.866957 -2.408448
C 3.083243 -2.199659 -2.889944
C 3.219413 -0.869101 -2.586498
C 2.262443 -0.238128 -1.807446
N -1.625017 -0.702277 -0.911515
N 0.077024 -1.634609 1.115246
N 1.198590 -0.889281 -1.305337
C 2.408124 0.043051 1.843264
C -2.154020 1.197368 -2.415427
C -1.039408 1.950768 -2.071276
C -0.740514 3.245002 -2.653001
C 0.366799 3.709150 -2.039192
C 0.787996 2.725694 -1.081742
C 1.907053 2.872338 -0.278556
C 2.299335 1.892918 0.639476
C 3.513175 1.961531 1.415824
C 3.593093 0.834122 2.147423
C -3.131500 1.775872 -3.386677
C -3.207514 1.354775 -4.700940
C -4.137924 1.956150 -5.565869
C -4.952739 2.988039 -5.083950
C -4.864037 3.423935 -3.801867
C -3.968108 2.815833 -2.948299
C 2.770965 4.079124 -0.452332
C 3.937815 3.994366 -1.205794
C 4.751067 5.097559 -1.369729
C 4.422977 6.298964 -0.790317
C 3.279712 6.394484 -0.034167
C 2.443240 5.289945 0.137817
C -1.044805 2.182170 1.633460
C -1.962285 2.866957 2.408448
C -3.083243 2.199659 2.889944
C -3.219413 0.869101 2.586498