13
H8 C4 O1
H 0.771629 1.700981 -0.453533
C -0.023627 -1.176034 -0.316948
H 0.036085 1.341786 1.634227
H -1.337293 0.664841 1.122922
O 0.161480 -0.072545 -1.191954
H -0.156622 -1.155311 1.772554
H 1.233041 -0.540535 1.231883
C -0.360186 0.716648 0.975717
C -0.042627 1.141466 -0.436004
H 0.603350 -1.908240 -0.532951
H -0.794456 1.662990 -0.815665
H -0.951879 -1.519687 -0.372053
C 0.261362 -0.606157 1.063978