180
Pr2 H96 C74 N8
H -0.443251 6.356314 -4.706598
Pr 0.000000 0.000000 -3.294581
Pr 0.000000 0.000000 3.294581
H -1.369357 2.137050 -5.586861
H 1.369357 -2.137050 -5.586861
H 0.281792 5.814054 -3.386203
H -2.519373 -0.126426 -5.575623
H 2.519373 0.126426 -5.575623
H -3.244416 -3.506406 -1.185546
H 3.244416 3.506406 -1.185546
H 3.506406 -3.244416 1.185546
H -3.506406 3.244416 1.185546
H -1.439424 4.874240 -1.539524
H -0.973325 -4.676224 -1.185546
H -3.370842 5.046362 -2.878647
H -4.676224 0.973325 1.185546
H -4.744768 -1.642010 -1.492701
H -3.791245 4.703642 -1.372836
H 1.642010 -4.744768 1.492701
H 1.983206 -3.568858 4.880777
H -1.983206 3.568858 4.880777
H -3.800384 -0.429542 -1.061934
H 3.800384 0.429542 -1.061934
H 0.429542 -3.800384 1.061934
H -0.429542 3.800384 1.061934
H -5.079872 1.019021 -2.475974
H -1.019021 -5.079872 2.475974
H -5.963328 0.385370 -1.299793
H -0.385370 -5.963328 1.299793
H -6.066906 -0.202586 -2.785002
H 0.202586 -6.066906 2.785002
H -4.069990 -0.428019 4.901379
H -4.775232 -0.991603 -4.553020
H 0.991603 -4.775232 4.553020
H -3.568858 -1.983206 -4.880777
H 3.568858 1.983206 -4.880777
H -4.580262 -3.564288 -3.346872
H 3.564288 -4.580262 3.346872
H -6.356314 -0.443251 4.706598
H -5.425638 -3.297728 -4.680377
H 3.297728 -5.425638 4.680377
H -5.856704 -2.598579 -3.307541
H 2.598579 -5.856704 3.307541
H 4.676224 -0.973325 1.185546
H 0.428019 -4.069990 -4.901379
H 4.744768 1.642010 -1.492701
H 1.937510 -4.487347 -4.588605
H -4.487347 -1.937510 4.588605
H 1.242931 -6.295386 -3.320652
H 5.079872 -1.019021 -2.475974
H -6.295386 -1.242931 3.320652
H 0.443251 -6.356314 -4.706598
H 5.963328 -0.385370 -1.299793
H -0.281792 -5.814054 -3.386203
H 6.066906 0.202586 -2.785002
H 4.069990 0.428019 4.901379
H -5.814054 0.281792 3.386203
H 1.868966 -3.405875 -1.084409
C 1.208050 3.900001 -1.678868
H -1.868966 3.405875 -1.084409
H 4.775232 0.991603 -4.553020
H 3.405875 1.868966 1.084409
H -3.405875 -1.868966 1.084409
H 1.439424 -4.874240 -1.539524
H -4.874240 -1.439424 1.539524
H 3.370842 -5.046362 -2.878647
H 4.580262 3.564288 -3.346872
H 6.356314 0.443251 4.706598
H -5.046362 -3.370842 2.878647
H 3.791245 -4.703642 -1.372836
H 5.425638 3.297728 -4.680377
C -0.795415 4.340054 1.807536
H -4.703642 -3.791245 1.372836
H 3.791245 -3.552102 -2.485338
H -3.791245 3.552102 -2.485338
H 5.856704 2.598579 -3.307541
C 0.189486 5.462804 2.120123
H -3.552102 -3.791245 2.485338
H 3.552102 3.791245 2.485338
C -1.709030 4.208449 4.175256
C -1.684964 -1.716951 4.826463
C 1.684964 1.716951 4.826463
C -2.898040 5.097084 3.848435
H 4.487347 1.937510 4.588605
C -1.026637 4.438757 -4.203162
C -0.428019 -2.356695 4.821968
C 0.428019 2.356695 4.821968
H 6.295386 1.242931 3.320652
C -0.566783 5.852287 -3.874843
C -1.883132 4.042420 -1.842746
H 5.814054 -0.281792 3.386203
C -3.339921 4.365034 -2.174999
C -1.688315 2.142838 -3.507754
C 1.688315 -2.142838 -3.507754
C -2.142838 -1.688315 3.507754
C 2.142838 1.688315 3.507754
H 4.874240 1.439424 1.539524
C -1.716951 1.684964 -4.826463
C 1.716951 -1.684964 -4.826463
H 5.046362 3.370842 2.878647
C -2.356695 0.428019 -4.821968
C 2.356695 -0.428019 -4.821968
H 4.703642 3.791245 1.372836
C -2.706117 0.153082 -3.499701
C 2.706117 -0.153082 -3.499701
C -0.153082 -2.706117 3.499701
C 0.153082 2.706117 3.499701
C -3.395822 -1.115135 -2.979784
C 3.395822 1.115135 -2.979784
C 1.115135 -3.395822 2.979784
C -1.115135 3.395822 2.979784
C -2.362026 -2.155633 -2.533659
C 2.362026 2.155633 -2.533659
C 2.155633 -2.362026 2.533659
C -2.155633 2.362026 2.533659
C -2.473372 -3.247615 -1.676620
C 2.473372 3.247615 -1.676620
C 3.247615 -2.473372 1.676620
C -3.247615 2.473372 1.676620
C -1.208050 -3.900001 -1.678868
C -3.900001 1.208050 1.678868
C -0.381562 -3.187601 -2.538341
C 0.381562 3.187601 -2.538341
C 3.187601 -0.381562 2.538341
C -3.187601 0.381562 2.538341
C 1.053750 -3.441823 -2.998700
C -1.053750 3.441823 -2.998700
C 3.441823 1.053750 2.998700
C -3.441823 -1.053750 2.998700
C -4.340054 -0.795415 -1.807536
C 0.795415 -4.340054 1.807536
C -5.462804 0.189486 -2.120123
C -0.189486 -5.462804 2.120123
C -4.208449 -1.709030 -4.175256
C 1.709030 -4.208449 4.175256
C -5.097084 -2.898040 -3.848435
C 2.898040 -5.097084 3.848435
C 1.026637 -4.438757 -4.203162
C -4.438757 -1.026637 4.203162
C 0.566783 -5.852287 -3.874843
C -5.852287 -0.566783 3.874843
C 1.883132 -4.042420 -1.842746
C -4.042420 -1.883132 1.842746
C 3.339921 -4.365034 -2.174999
C 3.900001 -1.208050 1.678868
C -4.365034 -3.339921 2.174999
C 0.000000 0.000000 -0.625549
C 0.000000 0.000000 0.625549
H 0.973325 4.676224 -1.185546
C 4.340054 0.795415 -1.807536
H -1.642010 4.744768 1.492701
C 5.462804 -0.189486 -2.120123
C 4.208449 1.709030 -4.175256
H 1.019021 5.079872 2.475974
C 5.097084 2.898040 -3.848435
H 0.385370 5.963328 1.299793
C 4.438757 1.026637 4.203162
H -0.202586 6.066906 2.785002
N -2.286323 1.192970 -2.677498
N 2.286323 -1.192970 -2.677498
N -1.192970 -2.286323 2.677498
N 1.192970 2.286323 2.677498
C 5.852287 0.566783 3.874843
H -0.991603 4.775232 4.553020
N -1.091068 -2.134308 -3.068559
N 1.091068 2.134308 -3.068559
N 2.134308 -1.091068 3.068559
N -2.134308 1.091068 3.068559
C 4.042420 1.883132 1.842746
C 4.365034 3.339921 2.174999
H -3.564288 4.580262 3.346872
H -2.137050 -1.369357 5.586861
H 2.137050 1.369357 5.586861
H -3.297728 5.425638 4.680377
H 0.126426 -2.519373 5.575623
H -0.126426 2.519373 5.575623
H -2.598579 5.856704 3.307541
H -0.428019 4.069990 -4.901379
H -1.937510 4.487347 -4.588605
H -1.242931 6.295386 -3.320652