156
Mn2 H58 C88 N8
Mn -0.775576 0.550015 -2.475005
H -0.903575 5.776641 -1.864549
H -1.174937 3.619074 -6.680315
H -1.283538 1.291042 -7.546853
H -3.438390 -2.564501 -5.692501
H -4.351703 -3.328256 -3.502957
H 3.542267 -3.100968 -5.057388
H 0.768166 5.664668 -4.552849
H -3.060559 5.164968 -4.633116
H 1.375381 0.196382 -5.740781
H 3.439929 -0.861511 -5.622348
H 1.647326 -4.297573 -4.724623
H -0.438412 -3.296503 -4.862007
H -2.997954 -4.723739 -2.148887
H 0.108909 -2.429131 -1.973491
N -0.983718 2.589927 -1.711967
N -0.955278 1.410201 -4.414210
N -2.009122 -1.132920 -3.238553
N 0.873834 -0.608486 -1.691784
H -0.216063 -7.680156 -2.654158
H 1.556843 -6.308071 -3.250532
H 2.119938 -4.499793 -1.917810
H 1.805164 3.726034 -1.348939
C -0.225339 7.315850 -5.137112
H 2.403552 4.859132 -3.280891
C -1.408232 7.798837 -5.376911
H 3.317311 3.690938 -5.069337
C -2.517791 6.988287 -5.234115
H 3.700464 1.391316 -4.869478
Mn 0.905211 -0.559519 2.187477
H 3.156075 0.313368 -2.902382
H -0.971413 4.909269 0.438229
H -1.508532 -2.350583 1.122491
H -3.981087 -6.627277 -1.282059
H -5.167104 -6.508619 0.709364
H -5.269724 -4.529875 1.879474
H -4.252059 -2.604611 1.026015
H -0.659981 2.315510 3.378484
H -2.052506 3.004059 5.083659
H -4.178320 3.726034 4.630395
H -4.940157 3.736061 2.446882
H -3.568053 3.015758 0.746749
H 3.467591 3.627431 0.183394
H 3.306883 4.105404 2.583278
H 1.725925 1.469864 6.887088
H 1.079931 -0.833100 7.365824
H 0.872999 -5.263548 4.461719
H 0.967646 -5.840125 2.097640
H 0.949588 4.287569 5.110779
H 1.837624 6.064094 6.303965
H 4.001703 6.032340 6.991130
H 5.247707 4.173925 6.561295
H 4.455443 2.502688 5.288749
N -0.994522 -0.392395 1.209373
H -1.201302 -3.812915 6.038791
N 2.018387 1.268981 1.815612
H -1.439056 -5.213411 7.879406
N 1.339101 -0.256356 4.233558
H 0.350808 -5.540973 9.302475
N 1.071413 -2.684496 2.616141
H 2.375723 -4.501464 8.890657
H 2.638275 -3.156119 7.026933
H -0.901548 -5.420644 0.573387
H -1.449112 -7.247306 -0.746867
H -1.499135 -1.125566 -6.449147
C -0.935066 4.880858 -1.612764
C -0.950396 3.766310 -2.483410
C -0.981917 3.825305 -3.870016
C -0.982803 2.759725 -4.774805
C -1.129074 2.840278 -6.176259
C -1.191048 1.551755 -6.658344
C -1.088454 0.709451 -5.535731
C -1.136241 -0.789982 -5.548267
C -2.147353 -1.367561 -4.544580
C -3.163280 -2.292424 -4.847807
C -3.668104 -2.712071 -3.635750
C -2.943353 -2.021182 -2.626237
C -2.982504 -2.208862 -1.247378
C -1.116196 5.206749 -4.466146
C -0.086667 5.998915 -4.695374
C -2.315575 5.709791 -4.756925
C 0.250282 -1.438088 -5.352153
C 1.421941 -0.712771 -5.549232
C 2.660112 -1.339485 -5.462054
C 2.715865 -2.681488 -5.135523
C 1.585188 -3.393434 -4.929629
C 0.332581 -2.800145 -5.018696
C -3.462488 -4.673602 -1.343867
H -2.702482 0.746219 -1.062826
H -0.212494 2.004660 1.103838
H 2.727544 -1.392964 0.793937
C -1.017896 2.996372 -0.431107
C -0.973430 4.403887 -0.341206
C 0.660260 -1.894001 -1.449255
H 0.528237 7.845632 -5.263626
H -1.506090 8.686264 -5.641251
H -3.368853 7.292452 -5.451185
C -2.406711 -1.224336 -0.360968
C -1.606832 -1.504937 0.748494
C -2.291210 0.182678 -0.557341
C -1.449406 0.650457 0.420380
C -1.066058 2.063153 0.747592
C 0.003103 -6.951497 -2.118602
C 1.070050 -6.130920 -2.476907
C 1.406808 -5.044616 -1.674329
C 2.464498 1.910569 -1.903891
C 2.209928 3.261931 -2.046958
C 2.547816 3.943294 -3.216198
C 3.101827 3.246389 -4.281866
C 3.331869 1.869290 -4.162829
C 3.006781 1.229206 -2.978607
C -3.554269 -3.430536 -0.675279
C -4.051562 -5.820070 -0.827037
C -4.747176 -5.749878 0.372317
C -4.820488 -4.564971 1.065860
C -4.211738 -3.400119 0.545100
C -1.959263 2.587253 1.880140
C -1.525223 2.594606 3.180747
C -2.358330 3.014087 4.205164
C -3.624444 3.440252 3.939213
C -4.076615 3.445266 2.638840
C -3.252362 3.016928 1.621498
C 2.448877 1.800268 0.594222
C 3.078983 3.080936 0.829153
C 3.003822 3.341649 2.150494
C 2.357451 2.203036 2.765341
C 2.144362 2.081537 4.163900
C 1.681772 0.948438 4.817285
C 1.574660 0.801369 6.256584
C 1.223649 -0.465428 6.523337
C 1.106100 -1.160662 5.240771
C 0.930448 -2.526063 5.084748
C 0.970933 -3.239681 3.856621
C 0.927608 -4.663574 3.752681
C 0.981579 -4.981109 2.456836
C 1.060763 -3.745898 1.722022
C 1.074109 -3.611364 0.333294
C 1.354009 -2.369468 -0.314287
C 2.068428 -1.240213 0.148268
C 1.787956 -0.170455 -0.706277
C 2.226805 1.186757 -0.641405
C 2.629236 3.219649 5.001416
C 1.845057 4.272528 5.360256
C 2.377198 5.333763 6.100583
C 3.640779 5.317051 6.518387
C 4.377945 4.229076 6.232144
C 3.899080 3.221320 5.481584
C 0.755359 -3.370037 6.334596
C -0.478073 -3.966669 6.601950
C -0.624870 -4.795602 7.711273
C 0.444116 -4.991137 8.557765
C 1.661785 -4.372779 8.307479
C 1.820848 -3.565906 7.196164
C 0.698115 -4.760172 -0.514618
C -0.398479 -5.602809 -0.186494
C -0.737170 -6.697469 -0.979934