117
Fe2 Sn1 H46 C64 N4
H -4.668250 1.402833 2.083887
H -2.970894 2.629369 3.517311
H 3.934947 2.290917 2.506474
H 1.546655 5.195573 1.896804
H 5.118808 6.940630 1.113388
H 5.764996 5.073957 -0.125502
H 4.312521 3.245937 -0.333488
H 3.398115 0.081078 -0.473355
C -1.886616 1.742228 -2.347521
H 2.875310 2.659538 -2.597307
C -2.196821 0.363907 -2.184967
H 0.711230 1.881757 -3.678578
C -2.751342 2.505867 -3.302239
H 1.258076 0.148957 -5.437208
C -2.868415 2.107078 -4.636236
H -3.015823 -7.011337 -2.110843
H 4.778572 1.486739 -3.789986
C -3.662034 2.839606 -5.515210
C -4.322034 3.982236 -5.083978
C -4.214148 4.381025 -3.765242
C -3.450921 3.638127 -2.872980
H -0.661294 1.899670 2.781336
C 2.184518 1.724316 1.395251
C 1.873232 2.857518 0.602935
C 0.851889 2.981963 -0.368783
C -0.867069 2.482298 -1.698808
C -0.473788 3.854963 -1.982156
C 0.583716 4.154762 -1.169543
C -1.591940 0.634480 1.355692
C -3.005733 0.486466 1.126744
C 3.331685 0.326196 2.758460
C 3.315246 1.604585 2.288999
C -3.724366 1.319870 2.029052
C -2.776014 2.006202 2.827013
C 2.785862 4.038802 0.764126
C -1.480180 1.588558 2.411961
C 2.403223 5.163520 1.490086
C 3.278497 6.245813 1.614700
C 4.525049 6.205274 1.019883
C 4.911140 5.096583 0.290583
C 4.043856 4.009576 0.163008
C 2.794304 2.033542 -3.307054
C 1.583341 1.581016 -3.908338
C 1.883307 0.621282 -4.900547
C 3.300354 0.494008 -4.934473
C 3.851660 1.367008 -3.966412
N 1.517207 0.530776 1.399192
N -0.032804 2.003374 -0.729703
Fe -2.581828 -0.011030 3.073371
H 0.877436 -4.435706 2.615834
H -1.054816 -4.978738 1.139669
H 3.015823 7.011337 2.110843
H -3.934947 -2.290917 -2.506474
H -1.546655 -5.195573 -1.896804
H -5.118808 -6.940630 -1.113388
H -5.764996 -5.073957 0.125502
H -4.312521 -3.245937 0.333488
H -3.398115 -0.081078 0.473355
H -2.875310 -2.659538 2.597307
H -0.711230 -1.881757 3.678578
H 2.405424 -1.337782 4.942911
H -1.258076 -0.148957 5.437208
H 4.843950 -4.489443 5.694023
H -4.778572 -1.486739 3.789986
H 4.663788 -5.163520 3.467541
H 3.402028 -3.904929 1.962372
H 3.972410 -0.043367 3.354102
H 0.661294 -1.899670 -2.781336
C -2.184518 -1.724316 -1.395251
C -1.873232 -2.857518 -0.602935
C -0.851889 -2.981963 0.368783
C 0.867069 -2.482298 1.698808
C 0.473788 -3.854963 1.982156
C -0.583716 -4.154762 1.169543
H 3.795190 -0.077307 -5.509457
H 4.668250 -1.402833 -2.083887
H 2.970894 -2.629369 -3.517311
C -3.331685 -0.326196 -2.758460
C -3.315246 -1.604585 -2.288999
C -2.785862 -4.038802 -0.764126
C -2.403223 -5.163520 -1.490086
C -3.278497 -6.245813 -1.614700
C -4.525049 -6.205274 -1.019883
C -4.911140 -5.096583 -0.290583
C 1.886616 -1.742228 2.347521
C -4.043856 -4.009576 -0.163008
C 2.196821 -0.363907 2.184967
C 2.751342 -2.505867 3.302239
C 2.868415 -2.107078 4.636236
C -2.794304 -2.033542 3.307054
C 3.662034 -2.839606 5.515210
C -1.583341 -1.581016 3.908338
C 4.322034 -3.982236 5.083978
C -1.883307 -0.621282 4.900547
C 4.214148 -4.381025 3.765242
C 3.450921 -3.638127 2.872980
C -3.300354 -0.494008 4.934473
C -3.851660 -1.367008 3.966412
N -1.517207 -0.530776 -1.399192
N 0.032804 -2.003374 0.729703
C 1.591940 -0.634480 -1.355692
C 3.005733 -0.486466 -1.126744
C 3.724366 -1.319870 -2.029052
C 2.776014 -2.006202 -2.827013
C 1.480180 -1.588558 -2.411961
H 3.755381 -2.552063 6.415529
H -3.755381 2.552063 -6.415529
H -2.405424 1.337782 -4.942911
H -4.843950 4.489443 -5.694023
H -4.663788 5.163520 -3.467541
H -3.402028 3.904929 -1.962372
H -3.972410 0.043367 -3.354102
Fe 2.581828 0.011030 -3.073371
Sn 0.000000 0.000000 0.000000
H -0.877436 4.435706 -2.615834
H 1.054816 4.978738 -1.139669
H -3.795190 0.077307 5.509457