90
H34 Rh1 C48 N6 Cl1
H 0.548955 -4.921226 -1.382400
H 0.119971 -5.046498 1.044235
H -0.688722 -3.235272 -4.416323
H -0.251042 -4.921226 -5.983683
H 1.802090 -5.979079 -6.006361
H 1.452333 -0.976895 -4.832102
H 1.327696 1.492009 -4.738867
H -1.210459 4.162740 -3.461293
H -0.859736 5.939168 -4.945496
H 1.292913 6.563788 -5.535146
H 2.787594 3.543339 -3.277342
H -0.056840 5.025725 -1.014499
H -0.481959 4.917852 1.427255
H -2.434609 2.589879 4.189033
H 1.142189 4.340209 3.450711
H -2.178572 -3.651106 3.586784
H 1.844602 -3.997344 3.443151
H -2.045239 -1.376490 -1.833457
H -5.083875 -1.850320 -1.715023
H -4.464553 -1.185682 -3.030395
H -5.581458 -0.406211 -2.191278
H -2.582435 1.474610 0.865324
H -4.777596 1.057036 -0.208141
C -2.081954 4.259130 5.315919
C -1.173744 5.262002 5.561858
C 0.019488 5.293146 4.868138
Rh 0.180454 0.008631 0.049970
C 0.508375 -2.789687 -1.151328
C 0.442675 -4.184730 -0.793506
C 0.203062 -4.252760 0.528166
C 0.095816 -2.894602 1.022060
C 0.807891 -2.305301 -2.425374
C 1.113204 -3.325747 -3.478932
C 0.151855 -3.677552 -4.413552
C 0.413689 -4.677467 -5.351195
C -1.426884 -5.042670 4.871413
C 1.626245 -5.305742 -5.359259
C -0.253941 -5.627969 5.330282
C 2.604986 -4.970813 -4.431947
C 0.962480 -5.245715 4.805645
C 2.347982 -3.980641 -3.498587
C 0.868760 -0.951145 -2.772108
C 1.217551 -0.453014 -4.073621
C 1.150885 0.892617 -4.024232
C 0.761514 1.251730 -2.679629
C 0.547988 2.554038 -2.235628
C 0.758616 3.677137 -3.214849
C -0.326405 4.397799 -3.717563
C -0.116743 5.462612 -4.594730
C 1.157648 5.824683 -4.954064
C 2.245567 5.115852 -4.472768
C 2.042669 4.034510 -3.602909
C 0.187603 2.897318 -0.930083
C -0.057806 4.242775 -0.478019
C -0.291622 4.183967 0.854993
C -0.195970 2.793446 1.244061
C -0.345728 2.314281 2.548093
C -0.618191 3.324809 3.630377
C -1.806592 3.283921 4.352068
C 0.311274 4.321418 3.910083
C -0.299351 0.973347 2.913222
C -0.343796 0.478697 4.274456
C -0.273265 -0.869718 4.221539
C -0.180511 -1.232485 2.820491
C -0.085826 -2.544188 2.354567
C -0.149594 -3.650062 3.365539
C -1.374710 -4.053543 3.894712
C 1.007890 -4.254326 3.811808
C -2.454899 -0.719044 -1.284125
C -4.809480 -1.008213 -2.131305
C -2.756347 0.836940 0.182187
C -3.960207 0.612146 -0.401667
N 0.261999 -2.023613 -0.033766
N 0.601128 0.107230 -1.942567
N 0.077459 2.036072 0.134814
N -0.189207 -0.094075 2.050923
N -1.832679 -0.006385 -0.375208
N -3.765039 -0.380809 -1.323183
Cl 2.461894 0.077652 0.519094
H 3.443630 -5.417094 -4.439002
H 3.016578 -3.745060 -2.866603
H 3.125757 5.361524 -4.731307
H -2.897409 4.228856 5.801749
H -1.366980 5.932208 6.207449
H 0.648471 5.982665 5.045788
H -0.409496 1.006579 5.060908
H -0.282926 -1.465804 4.960113
H -2.264562 -5.317921 5.224699
H -0.288723 -6.293999 6.008379
H 1.764409 -5.650240 5.113825