182
Ni2 H74 C98 N8
Ni -1.427350 -0.338377 -3.950077
H 5.221039 0.620270 10.625769
H 3.650698 0.360688 8.970343
Ni 1.562978 0.417520 3.835502
H 1.725609 3.188483 -2.162895
H 8.427172 2.110110 10.277474
H 0.158119 4.414597 -3.603455
H 7.273988 2.401450 11.297717
H 7.757171 0.929561 11.063095
H 5.654173 -3.310751 3.410326
H -3.642109 -3.821632 -6.844856
H 6.745340 -5.290759 2.956269
H -2.045410 -5.119545 -5.501674
H 3.235569 -7.059512 2.245676
H 2.145296 -5.058792 2.575297
H 6.686151 -7.693280 2.691442
H 5.302942 -8.429225 2.615528
H 5.934431 -7.810645 1.321137
H -0.277919 -2.612087 3.619757
C 0.727508 -1.897820 -0.876502
C 0.651234 -0.815581 -1.801363
H -0.593984 -1.145720 4.074565
H 4.742446 0.346880 0.931109
H 2.160198 3.271328 1.765595
H 0.761952 2.534003 0.090872
H 4.975640 1.647555 3.019709
H 5.176661 2.989653 2.232232
H 4.010743 2.858481 3.273994
H -2.978470 7.178876 -3.129156
H -2.155584 6.674899 -7.003380
H -1.951950 4.410454 -6.671114
H -2.758285 8.878591 -6.207875
H -3.276133 9.049805 -4.737584
H -1.736229 9.049805 -5.031087
H -4.041083 -1.507479 -8.700208
H -5.763526 -2.156436 -10.079633
C 1.029645 -1.246792 -4.269730
H -8.215808 -2.387023 -6.930304
H -6.506295 -1.670409 -5.545960
C 1.045750 -1.232156 2.797951
C 2.102327 -2.178943 2.415100
H -9.136823 -2.686648 -9.133733
C 1.032726 -1.843142 0.562570
H -8.249863 -2.395307 -10.393175
C 0.367777 -1.043682 1.517140
H -8.189092 -3.800920 -9.700628
H -2.848325 -5.259002 -2.740643
H -2.924228 -7.469597 -2.098574
H 1.041905 -7.740226 -2.557210
H 1.137720 -5.502016 -3.106177
H -0.341899 -9.485506 -1.216626
H -1.875625 -9.515882 -1.540866
C 0.228063 3.507438 4.187325
H -0.830085 -9.854168 -2.660631
C 1.419714 3.227558 4.860433
H -1.848690 -2.570664 0.715893
C 2.145909 4.157223 5.680401
H -3.434434 -3.145060 -0.858630
C 3.102184 3.447651 6.316410
C 2.983794 2.090365 5.881219
C 3.726988 1.021105 6.372878
H -5.124453 -0.883376 -3.044753
H -4.493836 -2.312462 -3.192194
H -5.582640 -2.044595 -2.096083
C 3.336954 -1.945594 4.457064
H -0.341815 5.399078 2.410116
C 3.054719 -2.682505 3.302717
H -1.471876 7.403940 2.643543
H -4.625748 3.210575 -5.598623
H -5.620670 1.098013 -6.383850
H -2.924582 1.516383 1.797845
H -2.330866 3.496392 3.110216
C 0.082710 -1.360014 -3.051101
C -0.150495 -2.757481 -2.655426
C 1.017910 0.513124 -1.627588
C 0.502446 1.481726 -2.513093
C 0.970771 2.841498 -2.582416
C 0.107993 3.515446 -3.370289
C -0.901198 2.583434 -3.780855
H -2.755277 4.911670 -2.786605
C -0.411870 4.848293 4.348464
C -3.956820 -1.156490 -6.054863
C -3.041181 -2.137796 -5.685598
C -3.102133 -3.497844 -6.160423
C -1.782613 7.284505 4.636280
C -2.226418 -4.210592 -5.421112
C -1.544555 6.474689 5.724706
C -1.625992 -3.297081 -4.484934
C -0.862491 5.264178 5.589571
C -0.817643 -3.708686 -3.415316
C -2.543367 8.562811 4.791654
C 4.693987 1.265223 7.493447
C 5.881933 1.933511 7.259680
C 6.823391 2.126264 8.266734
C 6.588732 1.623392 9.543191
C 5.392683 0.960213 9.777431
C -0.781368 -0.268524 1.356534
C 4.452695 0.792865 8.780825
C 7.603703 1.780522 10.644922
C 3.776007 -3.951423 3.033043
C 5.160517 -4.055670 3.153200
C -0.453605 2.554300 3.442874
C 5.817449 -5.253893 2.893839
C 3.729070 -6.299818 2.455277
C 5.113386 -6.392605 2.544885
C 3.068895 -5.099662 2.671587
C 5.823959 -7.701427 2.267916
H -3.664394 0.679643 -2.027238
H -2.055140 1.254039 -0.469588
C 0.106248 -1.780179 3.907120
N 1.972680 1.967339 4.949717
C 1.904834 0.976092 -0.536355
N 2.966194 -0.623103 4.689488
N 2.052972 -2.543877 1.097038
C 3.112838 0.332106 -0.265349
C 3.943631 0.792175 0.757758
C 3.607040 1.890569 1.517893
C 2.405144 2.531793 1.256064
C 1.562667 2.089122 0.249114
C 4.526740 2.392337 2.610843
C -2.303517 4.413768 -4.687091
C -2.624644 5.262935 -3.637726
C -2.752049 6.627263 -3.843672
C -2.548037 7.184952 -5.099108
C -2.265280 6.326948 -6.147876
C -2.143215 4.964001 -5.949926
C -2.583076 8.675205 -5.285822
C -5.081013 -1.541722 -6.967170
C -4.880131 -1.682422 -8.337747
C -5.914611 -2.080356 -9.166197
C -7.178224 -2.369211 -8.655838
C -7.378359 -2.209181 -7.291921
C -6.345366 -1.787359 -6.453728
C -8.289504 -2.857448 -9.552335
C -0.850298 -5.140257 -3.017265
H 4.922853 -1.385973 7.118524
C -2.060843 -5.752485 -2.699335
H 4.532036 -3.270709 5.608069
C -2.108092 -7.085332 -2.323691
C -0.951216 -7.858281 -2.276835
C 0.256625 -7.242739 -2.584101
C 0.314454 -5.898570 -2.930111
C -1.004343 -9.309459 -1.888582
C -1.788431 -0.588584 0.310067
C -2.213550 -1.911213 0.170270
C -3.175506 -2.255437 -0.772191
C -2.071326 2.951130 -4.447898
C -3.755868 -1.291114 -1.586233
C -3.009152 2.029197 -4.890248
C -4.259515 2.359613 -5.511086
C -4.805582 1.200327 -5.945770
C -4.837765 -1.666957 -2.569709
C -3.878098 0.159097 -5.598370
C -0.643668 5.662941 3.248337
C -1.323097 6.869724 3.389119
C -0.961835 0.811091 2.219936
C -2.112749 1.675861 2.222065
C -1.790360 2.755753 2.951579
N -0.622146 1.309960 -3.310383
N -2.080918 -2.007314 -4.694557
N 0.298603 -3.051168 -1.400088
N 0.027494 1.325286 3.049601
H 1.861793 -1.684217 -4.070824
H 0.623155 -1.666267 -5.031231
H 1.193837 -0.321407 -4.462334
H 1.988396 5.070457 5.758000
H 3.722970 3.779447 6.924612
H 0.610399 -1.921707 4.711096
H 3.366213 -0.407014 -0.768836
C -3.309539 0.024611 -1.470796
C -2.338348 0.371182 -0.532776
C 3.653112 -0.259411 5.835530
N -2.806742 0.667907 -4.907772
C 4.397612 -1.379345 6.352629
C 4.188880 -2.412015 5.517049
H -1.843994 6.738414 6.565656
H -0.710013 4.733552 6.338269
H -3.100824 8.511309 5.570011
H -1.926717 9.292819 4.887006
H -3.090078 8.705996 4.015048
H 6.056399 2.263374 6.406919
H 7.608585 2.590614 8.086922