182
Zn2 H64 C98 N10 O8
H -6.794125 -7.780632 -6.283962
C -4.278745 -0.629305 -5.724383
Zn -0.000000 1.351266 5.449437
C 4.278745 -0.629305 -5.724383
H 6.794125 -7.780632 -6.283962
Zn -0.000000 -1.399468 -5.484581
C -0.650880 5.496285 4.806813
H -1.197800 6.249515 4.613097
C -4.256428 -1.997131 -5.995254
H 1.197800 6.249515 4.613097
C 4.256427 -1.997131 -5.995254
C 0.650880 5.496285 4.806813
C -1.119830 4.227672 5.129950
H -4.980475 2.709569 5.554716
C -2.867375 -2.420443 -5.969121
C 1.119830 4.227672 5.129950
H 4.980475 2.709569 5.554716
C 2.867375 -2.420443 -5.969121
C -2.404923 3.846691 5.241534
H -4.997425 0.254359 6.123005
C -2.443625 -3.727419 -6.187726
C 2.404922 3.846691 5.241534
H 4.997425 0.254359 6.123005
C 2.443625 -3.727419 -6.187726
C -2.820480 2.482039 5.521116
H -1.203450 -3.481369 6.861367
C -1.082823 -4.118983 -6.317561
C 2.820480 2.482039 5.521116
H 1.203450 -3.481369 6.861367
C 1.082822 -4.118983 -6.317561
C -4.229025 2.136246 5.655929
H -3.613175 4.889626 3.186151
C -0.674610 -5.526495 -6.540729
C 4.229025 2.136246 5.655929
H 3.613175 4.889626 3.186151
C 0.674610 -5.526495 -6.540729
C -4.231003 0.791436 5.964963
H -5.152800 6.606685 2.982894
C -3.449325 2.082538 -5.156923
C 4.231002 0.791436 5.964963
H 5.152800 6.606685 2.982894
C 3.449325 2.082538 -5.156923
C -2.861443 0.352250 6.003955
H -5.381625 6.839507 6.902848
C -4.005850 2.672529 -6.206392
C 4.005850 2.672529 -6.206392
C 2.861442 0.352250 6.003955
H 5.381625 6.839507 6.902848
C -2.459728 -0.946789 6.283952
H -3.974775 4.905500 7.048032
O -6.268958 7.949907 4.842902
C -5.079350 3.706998 -6.151223
C 5.353375 6.958563 4.821332
C 2.459727 -0.946789 6.283952
H 3.974775 4.905500 7.048032
O 6.268957 7.949907 4.842902
C 5.079350 3.706998 -6.151223
C -1.092145 -1.420369 6.356543
C -5.472025 3.982151 -4.952422
C 1.092145 -1.420369 6.356543
C 5.472025 3.982151 -4.952422
C -0.646078 -2.733430 6.676777
H -3.782675 -1.766956 8.454238
C -4.909850 3.246646 -3.803398
C 0.646077 -2.733430 6.676777
H 3.782675 -1.766956 8.454238
C 4.909850 3.246646 -3.803398
C -3.488593 4.833537 5.111699
H -5.375975 -3.452266 8.715568
C -3.853300 2.479393 -3.948581
C 3.488592 4.833537 5.111699
H 5.375975 -3.452266 8.715568
C 3.853300 2.479393 -3.948581
C -3.935225 5.289126 3.983001
H -5.268625 -4.232748 4.861983
C -3.475880 -4.783054 -6.474774
C 3.935225 5.289126 3.983001
H 5.268625 -4.232748 4.861983
C 3.475880 -4.783054 -6.474774
C -4.878775 6.352698 3.853995
H -3.743125 -2.481295 4.588208
C -3.861775 -5.595283 -5.485038
H 3.743125 -2.481295 4.588208
C 4.878775 6.352698 3.853995
C 3.861775 -5.595283 -5.485038
H -6.830850 -5.047624 6.347003
C -4.771425 -6.502759 -5.682487
H 6.830850 -5.047624 6.347003
C 4.771425 -6.502759 -5.682487
H -1.954900 0.590363 3.215187
C -5.020025 6.445297 6.118857
C -5.443775 -6.658855 -6.816993
H 1.954900 0.590363 3.215187
C 5.020025 6.445297 6.118857
C 5.443775 -6.658855 -6.816993
H -1.946425 -0.245678 1.033287
C -4.124500 5.318229 6.203478
C -5.161275 -5.817522 -7.732893
H 1.946425 -0.245678 1.033287
C 4.124500 5.318229 6.203478
C 5.161275 -5.817522 -7.732893
C -3.490288 -1.970939 6.503386
H -2.000100 -0.743070 -0.908024
C -4.206425 -4.828030 -7.634168
C 3.490287 -1.970939 6.503386
H 2.000100 -0.743070 -0.908024
C 4.206425 -4.828030 -7.634168
N -0.000000 -0.552579 6.186886
C -4.051050 -2.264347 7.690158
H -1.985975 -1.404495 -3.077480
C 4.051050 -2.264347 7.690158
H 1.985975 -1.404495 -3.077480
N -2.039085 1.435929 5.748432
N 2.039085 1.435929 5.748432
C -5.022850 -3.280296 7.848615
H -1.192150 3.617044 -4.877756
C 5.022850 -3.280296 7.848615
H 1.192150 3.617044 -4.877756
N -0.000000 3.363057 5.262275
N -0.000000 0.690371 3.420518
C -5.432475 -3.962887 6.878374
H -5.042625 -0.078999 -5.607821
C 5.432475 -3.962887 6.878374
H 5.042625 -0.078999 -5.607821
N -0.000000 -1.469843 -3.341300
C -4.969175 -3.724774 5.608641
N -0.000000 -3.298816 -6.064112
H -5.011550 -2.550083 -6.163667
C 4.969175 -3.724774 5.608641
H 5.011550 -2.550083 -6.163667
N -2.048408 -1.303429 -5.782871
N 2.048407 -1.303429 -5.782871
C -4.028450 -2.695596 5.469265
H -1.245825 -6.275228 -6.661439
C 4.028450 -2.695596 5.469265
H 1.245825 -6.275228 -6.661439
N -0.000000 0.632694 -5.449364
C -1.124633 0.436913 2.778392
H -3.695100 2.415896 -7.067953
C 1.124632 0.436913 2.778392
H 3.695100 2.415896 -7.067953
C -1.124350 -0.055188 1.467593
O -6.379980 -4.943648 7.023143
H -5.438125 4.125018 -6.926917
C 1.124350 -0.055188 1.467593
O 6.379980 -4.943648 7.023143
H 5.438125 4.125018 -6.926917
C -0.000000 -0.250969 0.837496
H -5.316650 3.328663 -2.944741
O -6.520100 4.852586 -4.787327
H 5.316650 3.328663 -2.944741
O 6.520100 4.852586 -4.787327
C -0.000000 -0.639887 -0.662457
C -1.168985 -0.867418 -1.348138
H -6.709375 8.011552 4.152658
H -3.367400 2.204240 -3.181183
O -6.435350 -7.592258 -7.017346
C 1.168985 -0.867418 -1.348138
H 6.709375 8.011552 4.152658
H 3.367400 2.204240 -3.181183
O 6.435350 -7.592258 -7.017346
C -1.156273 -1.264273 -2.639441
H -6.850625 4.752049 -4.023247
C 1.156272 -1.264273 -2.639441
H 6.850625 4.752049 -4.023247
C -0.650315 2.847145 -5.012569
H -3.463450 -5.507975 -4.624722
C 0.650315 2.847145 -5.012569
H 3.463450 -5.507975 -4.624722
C -1.166725 1.484610 -5.253159
H -4.969175 -7.095395 -4.969014
C 1.166725 1.484610 -5.253159
H 4.969175 -7.095395 -4.969014
C -2.412550 1.045424 -5.370135
H -5.650000 -5.875728 -8.544676
C 2.412550 1.045424 -5.370135
H 5.650000 -5.875728 -8.544676
C -5.353375 6.958563 4.821332
C -2.858900 -0.224512 -5.653865
H 4.062350 -4.206291 -8.337271
H -4.062350 -4.206291 -8.337271
C 2.858900 -0.224512 -5.653865