23
H16 C7
H 0.682878 -1.146059 0.937225
H 0.593826 3.200884 0.901787
H 1.643847 1.357596 0.854536
C -1.407859 -3.598034 0.535590
H -2.375473 -3.613347 0.538543
H -1.155322 -4.055507 -0.338557
C -1.003800 -2.219875 0.160534
C 0.107361 -1.236023 0.222551
C 0.443633 3.449719 0.004014
C -0.138530 0.203388 -0.126517
H -1.340073 -2.001667 -0.539375
C 1.088266 1.053253 -0.031424
H 0.627055 -1.322158 -0.583673
C 0.950036 2.318480 -0.781537
H -0.563855 0.745081 0.712782
H -0.628983 0.567069 -0.819929
H 1.893725 0.750824 -0.583673
H 0.325340 4.190479 -0.282446
H -0.307331 2.071559 -0.654550
H 1.618593 3.304246 -0.279493
H 0.724082 2.176835 -1.841736
H -1.007788 -3.965544 1.217779
H -1.196525 -1.913618 0.960851