224
Zn2 H104 C104 N12 O2
C 5.343433 6.756091 1.524949
C 3.954145 6.555683 1.410962
C -3.385089 2.400020 -2.320887
C 1.409012 2.191596 5.746855
N -3.406765 -1.560846 -4.505865
C 3.048867 7.649109 0.847598
C 3.827584 8.644737 -0.030010
C 1.954996 7.057505 -0.018322
N -1.983885 0.772065 -5.414270
C 2.464722 8.434709 1.995413
N -1.961805 -1.445571 -1.948141
N -0.554617 0.887340 -2.868110
N 0.714966 -1.172054 2.835370
N 2.682448 -1.519321 4.883465
N -6.957662 -1.444609 -8.018570
N -4.863162 1.771540 -9.360071
N 4.015061 0.923093 3.977106
N 2.042283 1.231881 1.955099
C 6.201521 5.763670 1.973438
N 6.832521 -3.708419 6.385179
C 7.719896 6.005763 2.111848
H -7.357933 -6.231958 -0.428093
O -3.637278 1.023136 -2.549051
O 0.974759 1.139373 4.923267
C 8.107080 5.750844 3.565426
C 8.489471 5.077472 1.195469
H -8.756210 -4.407443 2.184895
Zn -2.189126 -0.172739 -3.568559
H -8.783888 -5.289238 0.810068
H -7.580124 -5.504076 1.891831
Zn 2.173621 0.022699 3.593576
H -3.890033 0.931429 -1.448265
C 8.111173 7.443891 1.778762
H -6.556007 -8.279327 -4.399512
H -8.853384 -2.295943 0.854166
H -7.214522 -6.812340 -4.114442
H -8.855402 -3.126434 -0.551773
H -7.726281 -1.978496 -0.283939
H 0.160006 0.610777 5.379498
H -7.489630 -9.124248 -2.283267
H -5.242022 -4.243910 -4.671534
H -7.266789 -8.301773 -0.891051
H -5.178410 -2.914803 -6.858208
H -8.174584 -7.655657 -2.084500
H -2.539486 1.412409 -8.555945
H -0.669780 2.845728 -7.560499
H 1.520128 3.434126 -2.773319
H -2.988958 -3.764533 0.127710
H -1.504959 -3.573745 2.852426
H 2.860705 3.695458 -0.037838
H 5.477361 3.719507 4.807722
H 6.169815 1.715426 6.267119
N 8.430329 -0.048165 5.233123
H 4.262047 -2.905183 7.370139
H -4.272868 -5.701277 -3.134471
H 1.882395 -3.828664 7.044612
H -5.362699 -2.616596 -0.618605
H -7.050397 -2.643851 2.521092
H -5.846061 -3.703609 2.218002
H -5.944483 -2.313579 1.367531
H -5.617756 -6.942204 -4.434721
H -5.041306 -9.319846 -2.642470
H -4.696986 -8.486148 -1.281661
H -4.094351 -7.990740 -2.716049
H 1.787500 2.284585 -6.562870
H -0.269786 4.955624 -4.192517
H 2.740858 6.305573 -6.695223
H 5.475624 4.562824 -8.221871
H 5.137418 4.407308 -6.631659
H 4.619855 5.720382 -7.454248
H 3.626655 4.365623 -9.907143
H -0.023918 8.336910 -3.367861
H 2.100891 4.051383 -9.416754
H -0.820063 7.009407 -3.885930
H 2.772023 5.508751 -9.111503
H 0.469230 6.852287 -2.895957
H 4.502430 2.343906 -8.689410
H 2.204215 8.849955 -4.086617
H 2.981229 1.979965 -8.217799
H 2.724968 7.365331 -3.654616
H 4.163867 2.149911 -7.103844
H 3.006041 7.920061 -5.163852
H 0.329871 9.101667 -5.690935
H -0.414518 7.793403 -6.322895
H 1.109890 8.163757 -6.777403
H -2.001614 -2.603770 5.511981
H -2.431663 -6.464431 7.027471
H 1.151927 -5.319700 5.277129
H -5.635767 -5.093640 7.234570
H -4.320736 -5.993071 7.594118
H -4.787377 -5.813506 6.039238
H -5.487313 -3.095972 5.989405
H -4.611443 -3.887985 4.861532
H -4.045905 -2.497954 5.507223
H -4.684124 -3.070320 8.332423
H -3.291539 -3.819044 8.740902
H -3.254339 -2.472302 7.816133
H -0.477906 -9.351911 7.197704
H -1.274846 -8.117397 7.910057
H -1.687415 -8.595170 6.405189
H 1.649693 -8.165495 7.633990
H 0.853096 -6.900519 8.293754
H 1.890284 -6.656823 7.055247
H 1.003822 -8.962318 5.313234
H -0.169886 -8.170305 4.503504
H 1.276664 -7.455249 4.750523
H 2.443092 5.172065 1.808736
H -4.169519 2.804043 -1.843337
H 3.217436 9.348570 -0.421836
H -2.562860 2.513852 -1.796172
H 4.575395 9.076015 0.443140
H -3.288121 2.855347 -3.218910
H 4.231772 8.141312 -0.852577
H 0.663712 2.539504 6.274749
H 1.342286 7.791800 -0.354830
H 2.131038 1.827655 6.366296
H 1.367531 6.429025 0.544764
H 1.818503 2.905049 5.180409
H 2.317627 6.550873 -0.777485
H 6.293955 3.767605 2.563046
H 1.879082 9.196260 1.639482
H 1.943364 7.891202 2.617606
H 3.222183 8.901259 2.520146
H 9.088850 5.874295 3.706697
H 7.869187 4.793695 3.821513
H 9.467199 5.215353 1.286761
H 5.727639 7.634680 1.272755
H 8.275098 4.110704 1.449707
H 8.211044 5.212147 0.244328
C -3.916084 -2.703172 -3.907154
C -4.743095 -3.397386 -4.840246
H 7.602838 6.366497 4.169615
C -4.729044 -2.666297 -5.996418
C -3.938139 -1.511946 -5.752631
H 9.077579 7.588185 1.860194
C -3.793815 -0.389661 -6.657936
H 7.616540 8.070768 2.406132
C -2.690329 0.553059 -6.540121
H 7.808789 7.671555 0.836357
C -2.205067 1.394773 -7.602086
C -1.214935 2.151514 -7.075335
C -1.071164 1.779557 -5.707180
C -0.177214 2.367955 -4.806860
C 0.039749 1.976758 -3.476271
C 0.950641 2.616461 -2.584056
C 0.898542 1.894992 -1.411574
C -0.020954 0.817598 -1.632120
C -0.293757 -0.163600 -0.626573
C -1.237335 -1.220152 -0.836036
C -3.721203 -3.076572 -2.549999
C -1.561249 -2.183714 0.193488
C -2.534893 -2.983743 -0.328613
C -2.783405 -2.522003 -1.666080
C 0.107697 -2.246241 3.481863
C -0.890819 -2.810591 2.630096
C -0.868668 -2.100344 1.460499
C 0.121647 -1.069445 1.622309
C 0.388941 -0.081834 0.627763
C -7.352192 -3.754914 0.761600
C 1.317442 0.993957 0.855908
C -8.204814 -4.808259 1.458352
C 1.573415 1.987981 -0.153648
C 2.473978 2.871380 0.395473
C -7.346846 -8.220006 -1.883830
C -8.265666 -2.696759 0.142410
C 2.776795 2.390401 1.704210
C 3.738385 2.941924 2.590540
C 4.249492 2.263743 3.726711
C 5.165673 2.768771 4.707385
C 5.539256 1.707410 5.485528
C 4.823956 0.585124 5.001623
C 4.954068 -0.795287 5.477235
C 3.777241 -1.637001 5.658387
C 3.588388 -2.632628 6.662480
C -4.759871 -0.163600 -7.654599
C 2.331689 -3.118418 6.486561
C -5.961532 -0.915532 -7.811025
C 1.773199 -2.451459 5.343311
C -4.769593 0.934636 -8.579439
C 0.550193 -2.776922 4.702156
C -4.691039 -4.043501 -1.961547
C 6.216036 -1.293902 5.723952
C 6.508048 -2.645454 6.096665
C -6.651114 -5.645163 -0.830852
C -5.495684 -3.567332 -0.935211
C -5.870634 -6.148588 -1.887006
C -6.474823 -4.352932 -0.340288
C -4.871414 -5.345352 -2.421223
C -6.116266 -7.548238 -2.477565
C -6.385948 -7.397532 -3.988372
C -6.466750 -3.046271 1.817298
C -4.872055 -8.401175 -2.270650
C 0.652877 3.498257 -5.321165
C 2.183119 5.560055 -6.325301
C 0.447653 4.795298 -4.872014
C 2.423514 4.269427 -6.776176
C 1.639492 3.230511 -6.257909
C 1.207882 5.853453 -5.361579
C 3.478687 3.992062 -7.852186
C 4.793026 4.707118 -7.509510
C 2.938533 4.508313 -9.186605
C 3.802425 2.504232 -7.978678
C 7.415065 -0.551591 5.461218
C -0.298386 -3.844697 5.336486
C -1.612114 -3.535266 5.711670
C 1.006978 7.296391 -4.873364
C -2.405017 -4.500432 6.339558
C 0.065111 7.395793 -3.679252
C 2.333897 7.892806 -4.384139
C -1.862370 -5.758995 6.572747
C -0.560307 -6.092474 6.189912
C 0.477303 8.158948 -5.996874
C 0.206759 -5.112879 5.569449
C -3.842745 -4.147714 6.800311
C -4.690409 -5.358179 6.986225
C -4.571272 -3.342875 5.689048
C -3.771592 -3.330049 8.022062
C 0.065808 -7.476092 6.462563
C -0.926782 -8.478132 7.016083
C 1.231916 -7.286906 7.434648
C 0.608743 -8.064490 5.136399
C 4.291339 4.280650 2.242819
C 5.667319 4.514726 2.295542
C 3.447575 5.322772 1.820170