220
Zn2 H92 C112 N14
H -9.206925 -4.028040 0.022791
Zn 0.210091 -2.850148 2.661661
Zn -0.210091 2.850148 -2.661661
H 3.121570 -2.576010 7.002004
H -3.121570 2.576010 -7.002004
H 2.513541 -5.049840 6.758545
H -2.513541 5.049840 -6.758545
H -3.540902 -6.413135 3.329309
H 3.540902 6.413135 -3.329309
H -4.541464 -1.687313 0.768666
H 4.541464 1.687313 -0.768666
H -2.979613 0.121003 -0.141109
H 2.979613 -0.121003 0.141109
H 1.164093 2.140401 1.660087
H -1.164093 -2.140401 -1.660087
H 2.285004 1.800249 3.924218
H -2.285004 -1.800249 -3.924218
H 1.344431 1.136079 6.402704
H -1.344431 -1.136079 -6.402704
N 0.606449 -9.040235 3.454437
H -5.000368 -2.213002 -7.940921
H 4.731148 -1.043311 5.442767
H -4.731148 1.043311 -5.442767
H 5.000368 2.213002 7.940921
H -2.696433 -5.084796 -8.088960
H 2.696433 5.084796 8.088960
H -4.082976 -4.279457 -7.781661
H 4.082976 4.279457 7.781661
H -2.955803 -4.438105 -6.612260
H 2.955803 4.438105 6.612260
H 0.755117 3.232113 6.856710
H -0.755117 -3.232113 -6.856710
H 6.943789 1.253049 8.586070
H -6.943789 -1.253049 -8.586070
H 7.119093 2.289637 7.335048
H -7.119093 -2.289637 -7.335048
H 6.760273 0.008067 4.669852
C -6.946466 1.052722 -7.110607
H -6.760273 -0.008067 -4.669852
H 6.982981 1.579756 5.052903
H -6.982981 -1.579756 -5.052903
H -4.817269 -4.428693 4.135276
H 4.817269 4.428693 -4.135276
H -8.237818 -5.107652 1.935248
H 8.237818 5.107652 -1.935248
H -4.751164 -4.009218 0.026473
H 4.751164 4.009218 -0.026473
H -9.183510 -4.779601 -1.426813
H 9.183510 4.779601 1.426813
H -8.986666 -5.644097 -0.054984
H 8.986666 5.644097 0.054984
H -7.472053 -3.233457 -2.212749
H 7.472053 3.233457 2.212749
H -7.408143 -2.467108 -0.770954
H 7.408143 2.467108 0.770954
H -6.046642 -3.084221 -1.428742
H 6.046642 3.084221 1.428742
H -7.109346 -5.697876 -2.325557
H 7.109346 5.697876 2.325557
H -6.808427 -6.552960 -0.967244
H 6.808427 6.552960 0.967244
H -5.691496 -5.504272 -1.534947
H 5.691496 5.504272 1.534947
H 0.185451 -4.236434 -0.066868
H -0.185451 4.236434 0.066868
H 1.609153 -4.487850 -1.953330
H -1.609153 4.487850 1.953330
H 3.845695 -3.690578 -1.836106
H -3.845695 3.690578 1.836106
H 4.643086 -2.725246 0.199009
H -4.643086 2.725246 -0.199009
H 3.140677 -2.522231 2.046915
H -3.140677 2.522231 -2.046915
C 2.011147 -2.308460 5.149201
C -2.011147 2.308460 -5.149201
C 2.581114 -2.987419 6.265186
C -2.581114 2.987419 -6.265186
C 2.258886 -4.307691 6.136373
C -2.258886 4.307691 -6.136373
C 1.481988 -4.419282 4.955629
C -1.481988 4.419282 -4.955629
C 0.839814 -5.626619 4.425545
C -0.839814 5.626619 -4.425545
C -0.492987 -5.547295 3.828911
C 0.492987 5.547295 -3.828911
C -1.516820 -6.497837 3.979183
C 1.516820 6.497837 -3.979183
C -2.639601 -5.981559 3.384974
C 2.639601 5.981559 -3.384974
C -2.269727 -4.705655 2.860880
C 2.269727 4.705655 -2.860880
C -3.135899 -3.807547 2.152757
C 3.135899 3.807547 -2.152757
C -2.732120 -2.624411 1.542670
C 2.732120 2.624411 -1.542670
C -3.548531 -1.657735 0.865809
C 3.548531 1.657735 -0.865809
C -2.720243 -0.685681 0.384561
C 2.720243 0.685681 -0.384561
C -1.387443 -1.062133 0.788275
C 1.387443 1.062133 -0.788275
C -0.166032 -0.268895 0.613853
C 0.166032 0.268895 -0.613853
C 0.604200 0.040334 1.820216
C -0.604200 -0.040334 -1.820216
C 1.192467 1.293383 2.189204
C -1.192467 -1.293383 -2.189204
C 1.788861 1.111879 3.398262
C -1.788861 -1.111879 -3.398262
C 1.572334 -0.252761 3.762894
C -1.572334 0.252761 -3.762894
C 2.134902 -0.915586 4.870379
C -2.134902 0.915586 -4.870379
C 2.931235 -0.075290 5.798763
C -2.931235 0.075290 -5.798763
C 2.328258 0.986843 6.487809
C -2.328258 -0.986843 -6.487809
C 3.071334 1.828483 7.287953
C -3.071334 -1.828483 -7.287953
C 4.449992 1.603956 7.370394
C -4.449992 -1.603956 -7.370394
C 5.082322 0.576779 6.697544
C -5.082322 -0.576779 -6.697544
C 4.302250 -0.275617 5.917171
C -4.302250 0.275617 -5.917171
C 2.446892 3.006241 8.052687
C -2.446892 -3.006241 -8.052687
C 3.102564 4.315758 7.598521
C -3.102564 -4.315758 -7.598521
H 8.281712 1.187169 7.650643
H 6.476016 -1.676558 6.485692
C 0.949606 3.108421 7.832665
C -0.949606 -3.108421 -7.832665
C 6.612538 0.368386 6.746795
C -6.612538 -0.368386 -6.746795
H 6.652699 -1.234226 8.046952
H 8.172026 0.494766 5.328588
C 7.294390 1.360606 7.655042
C -7.294390 -1.360606 -7.655042
C 7.179499 0.634591 5.322474
C -7.179499 -0.634591 -5.322474
C -4.583020 -4.175932 2.088478
C 4.583020 4.175932 -2.088478
C -5.285929 -4.471716 3.255459
C 5.285929 4.471716 -3.255459
C -6.632960 -4.836069 3.213429
C 6.632960 4.836069 -3.213429
C -7.272366 -4.854891 1.976202
C 7.272366 4.854891 -1.976202
C -6.607428 -4.537596 0.789985
C 6.607428 4.537596 -0.789985
C -5.250152 -4.214922 0.866184
C 5.250152 4.214922 -0.866184
H 9.206925 4.028040 -0.022791
C 7.358635 5.224621 -4.511238
C -7.290253 -4.560452 -0.589411
C 7.290253 4.560452 0.589411
C -7.358635 -5.224621 4.511238
C 8.798192 4.768845 0.499399
C -8.798192 -4.768845 -0.499399
C 7.034291 3.220012 1.317333
C -6.671909 -5.673675 -1.424174
C 6.671909 5.673675 1.424174
C 1.131633 -3.917794 -0.004535
C -1.131633 3.917794 0.004535
C 1.955527 -4.057619 -1.117898
C -1.955527 4.057619 1.117898
C 3.241902 -3.607220 -1.045513
C -3.241902 3.607220 1.045513
C 3.698286 -3.043886 0.123247
C -3.698286 3.043886 -0.123247
C 2.815281 -2.937673 1.194573
C -2.815281 2.937673 -1.194573
C -6.555961 -4.936904 5.736720
C 6.555961 4.936904 -5.736720
C -7.722086 -6.690097 4.369725
C 7.722086 6.690097 -4.369725
C -8.711679 -4.407182 4.568531
C 8.711679 4.407182 -4.568531
N 1.322547 -3.214634 4.365896
N -1.322547 3.214634 -4.365896
H 1.439499 7.386533 -4.429473
N 0.943268 4.460961 -3.149972
N -1.402001 -2.203591 1.496119
N 1.402001 2.203591 -1.496119
N 0.793320 -0.865840 2.788627
N -0.793320 0.865840 -2.788627
N -0.943268 -4.460961 3.149972
C -7.034291 -3.220012 -1.317333
N 1.544842 -3.366560 1.129861
N -1.544842 3.366560 -1.129861
H 7.934764 -1.189858 7.035452
H 2.317126 3.595120 10.056246
H 3.706515 2.809948 9.709644
H 2.312243 1.973686 9.864953
H 0.582584 3.886871 8.343967
C 6.946466 -1.052722 7.110607
H 0.505092 2.266781 8.150916
H -2.317126 -3.595120 -10.056246
H -3.706515 -2.809948 -9.709644
H -2.312243 -1.973686 -9.864953
H -0.582584 -3.886871 -8.343967
H -1.439499 -7.386533 4.429473
H -0.505092 -2.266781 -8.150916
N -3.672173 7.369055 -5.753932
C -1.433440 6.859500 -4.553358
C -2.689160 7.086716 -5.232704
C -0.919732 8.064148 -3.938673
C 2.725860 2.831460 9.551161
C -2.725860 -2.831460 -9.551161
N -0.606449 9.040235 -3.454437
C 1.433440 -6.859500 4.553358
H -6.476016 1.676558 -6.485692
C 2.689160 -7.086716 5.232704
H -7.934764 1.189858 -7.035452
C 0.919732 -8.064148 3.938673
H -6.652699 1.234226 -8.046952
H -8.281712 -1.187169 -7.650643
H -8.172026 -0.494766 -5.328588
N 3.672173 -7.369055 5.753932