154
Mn2 H56 C88 N8
H -1.114819 5.458875 -2.317507
Mn -1.702089 -1.819971 -0.126609
H -1.192999 2.846625 -0.755263
N -0.429937 1.791935 0.766704
H -2.005791 0.210641 -3.763655
N 0.429937 -1.791935 -0.766704
H 3.236116 1.249014 5.073716
H 2.370077 3.254557 5.682644
H 0.332172 3.928016 4.859200
C -1.311374 -4.585158 1.943120
C -0.955706 -3.383612 2.516548
C -0.328049 -3.232307 3.818696
C -0.104367 -1.958075 4.021017
C -0.822683 -5.831206 2.587563
C -1.681614 -6.785025 3.090985
C -1.207984 -7.989538 3.577318
C 0.146650 -8.243198 3.552308
H -5.772211 -1.863138 -3.402873
C 0.520104 -6.105633 2.622369
H -3.673903 -6.307374 -1.446430
H -2.278668 -6.813210 0.492815
H 5.504524 -0.517703 3.049957
C -0.566012 -1.222313 2.860733
H 0.284240 -1.588711 4.781033
H -6.663920 -3.956201 -2.099785
H 4.451615 -5.586446 1.200976
H -7.910517 -5.304602 -3.523672
H 4.538987 -5.783737 3.539101
H -6.845467 -6.590701 -5.135800
H 4.194300 -3.917633 4.799398
H -4.555822 -6.433462 -5.395388
H 3.711411 -1.915056 3.855974
H -3.331631 -5.079127 -3.984758
N -1.113234 -2.140532 1.991809
C -3.385479 1.243081 -1.264453
C -3.930304 0.034118 -1.671420
H 1.939547 -7.458484 3.084257
H 1.114819 -5.458875 2.317507
H -3.236116 -1.249014 -5.073716
H 1.192999 -2.846625 0.755263
H -0.332172 -3.928016 -4.859200
H -2.370077 -3.254557 -5.682644
H 2.005791 -0.210641 3.763655
C 5.011287 0.154273 2.640197
C 5.159580 1.468556 2.824370
C 4.226596 2.176133 1.994791
C 4.062419 3.554202 1.946447
H 3.331631 5.079127 3.984758
C 3.274558 4.282547 1.047404
C 3.245386 5.687317 0.899396
C 2.485472 5.964711 -0.173539
C 2.049843 4.726080 -0.736482
C -3.732934 2.527696 -1.908040
C -3.985007 3.644689 -1.150835
C -4.286884 4.843268 -1.735634
C -4.353641 4.966389 -3.136990
C -4.138320 3.856814 -3.872292
C -3.843059 2.658235 -3.314536
C 4.864668 4.373033 2.908303
C 6.237930 4.450170 2.764547
C 6.984577 5.267518 3.611445
C 6.349960 6.028497 4.585003
C 4.986205 5.942460 4.732042
C 4.254848 5.123629 3.888903
C -1.023427 7.296795 -3.085688
C -2.395655 1.266815 -0.232812
H 0.119996 3.923566 -4.406398
C 0.431530 1.005738 3.455667
C 1.662763 0.630441 3.962501
C 2.393184 1.499707 4.770971
C 1.890306 2.695319 5.116387
C 0.673756 3.091385 4.636685
C -0.051548 2.235469 3.809273
H 2.595730 6.615919 -3.102340
H 1.797747 8.621462 -3.920308
C -5.011287 -0.154273 -2.640197
N 3.487376 1.225280 1.289718
C -5.159580 -1.468556 -2.824370
N 2.503765 3.705508 0.037694
C -4.226596 -2.176133 -1.994791
C 3.385479 -1.243081 1.264453
C -4.062419 -3.554202 -1.946447
C 3.930304 -0.034118 1.671420
C -3.274558 -4.282547 -1.047404
H -0.468275 9.062029 -3.850801
C -3.245386 -5.687317 -0.899396
C -2.485472 -5.964711 0.173539
C -2.049843 -4.726080 0.736482
H 2.751779 0.326346 -1.109291
C 3.732934 -2.527696 1.908040
C 3.985007 -3.644689 1.150835
C -4.864668 -4.373033 -2.908303
C 4.286884 -4.843268 1.735634
C -6.237930 -4.450170 -2.764547
C 4.353641 -4.966389 3.136990
C -6.984577 -5.267518 -3.611445
C 4.138320 -3.856814 3.872292
C -6.349960 -6.028497 -4.585003
C 3.843059 -2.658235 3.314536
C -4.986205 -5.942460 -4.732042
C -4.254848 -5.123629 -3.888903
C 1.023427 -7.296795 3.085688
C 2.395655 -1.266815 0.232812
C -0.431530 -1.005738 -3.455667
H -3.949988 3.585353 -0.224785
C -1.662763 -0.630441 -3.962501
C -2.393184 -1.499707 -4.770971
H 3.949988 -3.585353 0.224785
C -1.890306 -2.695319 -5.116387
C -0.673756 -3.091385 -4.636685
C 0.051548 -2.235469 -3.809273
N -3.487376 -1.225280 -1.289718
N -2.503765 -3.705508 -0.037694
H -0.882633 2.506929 3.492583
H 0.882633 -2.506929 -3.492583
C 1.311374 4.585158 -1.943120
C 0.955706 3.383612 -2.516548
C 0.328049 3.232307 -3.818696
C 0.104367 1.958075 -4.021017
C 0.822683 5.831206 -2.587563
C 1.681614 6.785025 -3.090985
C 1.207984 7.989538 -3.577318
C -0.146650 8.243198 -3.552308
H -0.119996 -3.923566 4.406398
C -0.520104 6.105633 -2.622369
C 0.566012 1.222313 -2.860733
H -2.595730 -6.615919 3.102340
H -1.797747 -8.621462 3.920308
H 0.468275 -9.062029 3.850801
N 1.113234 2.140532 -1.991809
H -2.751779 -0.326346 1.109291
Mn 1.702089 1.819971 0.126609
H -5.504524 0.517703 -3.049957
C -1.303437 2.121248 -0.183947
C 1.303437 -2.121248 0.183947
C -2.149773 0.364914 0.795513
C -0.992030 0.728344 1.432171
C 2.149773 -0.364914 -0.795513
C -0.400755 0.126088 2.585428
C 0.992030 -0.728344 -1.432171
H -0.284240 1.588711 -4.781033
C 0.400755 -0.126088 -2.585428
H -4.451615 5.586446 -1.200976
H -4.194300 3.917633 -4.799398
H -4.538987 5.783737 -3.539101
H -3.711411 1.915056 -3.855974
H 3.673903 6.307374 1.446430
H 2.278668 6.813210 -0.492815
H 5.772211 1.863138 3.402873
H 6.663920 3.956201 2.099785
H 7.910517 5.304602 3.523672
H 6.845467 6.590701 5.135800
H 4.555822 6.433462 5.395388
H -1.939547 7.458484 -3.084257