107
H31 Ru4 Pd1 C59 N3 O9
C -1.118985 -4.954154 -0.487723
C -1.751952 -0.027085 -0.424691
H 1.222537 0.434198 -5.380830
C -2.159487 -6.252624 -2.223561
N -2.354730 2.448901 0.822368
N -2.547349 1.111299 3.356769
N -2.101012 -1.391960 2.039402
C -2.780053 5.792904 3.860994
C -3.275754 6.930103 4.452824
C -4.626306 7.016668 4.740706
C -5.465682 5.990936 4.470134
H -3.041860 3.268300 -5.725106
H -1.427006 4.936745 -6.026583
H -0.664706 -6.885850 -0.999166
H -0.588974 -3.381761 -2.649071
H 0.963838 -3.303497 -4.365959
H 2.308104 -1.518843 -4.771896
C -1.468105 4.455303 -5.208348
H 0.009546 -3.583350 7.436472
H -0.212405 -2.393976 5.456302
H -2.234167 -7.062537 -2.713903
H -0.492732 -4.883005 0.222811
Ru 0.494565 -0.173415 -0.525149
Ru 1.942505 -2.163097 -1.991549
Ru 2.131817 0.606141 -2.736992
Ru 3.365385 -0.376664 -0.560026
C -0.155009 -2.500699 -2.835983
C 0.800134 -2.460381 -3.852819
C 1.561760 -1.292352 -4.228252
C 0.992210 0.002560 -4.510805
H -0.281218 1.532264 -4.002930
H -3.098384 2.055209 -3.750713
H -0.048633 4.282174 -2.280870
H -2.606283 4.891684 -1.245571
H -5.554318 4.081771 3.697365
H -3.149882 3.156833 5.757843
H -2.564435 0.913268 6.581032
H -3.949268 -1.336227 6.543808
H -3.720578 -2.527973 8.520196
H -1.769087 -3.760037 8.910222
C -1.227888 -6.149458 -1.208287
H -2.559413 -3.797983 4.094910
H -2.529679 -4.572321 1.762280
C 0.956500 -0.961509 1.154461
H -3.421612 -3.264365 -2.036522
C 1.937468 -3.291639 -0.514059
H -3.623826 -5.274325 -3.219801
C 3.294158 -3.256065 -2.627145
C 3.721488 0.770970 -3.679109
C 2.352348 2.426370 -2.377528
C 1.145078 1.465858 0.099866
Pd -2.209221 0.529300 1.425691
C 3.846759 -1.358757 1.011041
C 4.884500 -0.818025 -1.531971
C 3.976139 1.295101 0.120056
C -1.404177 -1.371801 -0.852922
C -0.666161 -1.330298 -2.113868
O 1.080803 -1.434650 2.165049
O 1.957770 -4.012616 0.372908
O 4.121189 -3.979413 -2.976106
O 4.670629 0.914454 -4.285066
C -0.592465 0.063037 -2.509559
O 2.540947 3.519693 -2.154546
C 0.056402 0.644087 -3.691327
O 1.340323 2.512935 0.494070
O 4.151819 -1.900676 1.957428
C -1.320071 0.842119 -1.488352
O 5.854745 -1.055188 -2.115009
C -1.643420 2.257984 -1.535323
O 4.309469 2.307788 0.506330
C -1.568500 3.018093 -2.825954
C -2.454938 2.745355 -3.857937
C -2.418626 3.458031 -5.034630
C -0.579300 4.744642 -4.181716
C -0.638351 4.054497 -2.991017
C -2.148196 2.931528 -0.462704
C -2.604133 4.320120 -0.487980
C -3.014866 4.643848 0.733746
C -2.838272 3.474632 1.580064
C -3.089259 3.458031 2.942536
C -3.607562 4.716183 3.577701
C -4.969758 4.807491 3.882700
C -2.870928 2.384867 3.775144
C -2.932181 2.403840 5.220654
C -2.632412 1.184820 5.673543
C -2.427476 0.352376 4.492111
C -2.270335 -1.031472 4.492797
C -2.128033 -1.748891 5.774341
C -3.140288 -1.804625 6.712594
C -3.012983 -2.519672 7.885933
C -1.848128 -3.224047 8.130501
C -0.809088 -3.142226 7.241850
C -0.937311 -2.427178 6.068335
H 0.074906 5.422930 -4.303080
C -2.243370 -1.802253 3.317158
C -2.432986 -3.254879 3.326461
C -2.394545 -3.679401 2.058182
H -3.361136 5.486964 1.004616
C -2.109256 -2.533902 1.215806
H -1.856589 5.744286 3.643196
C -1.789206 -2.570662 -0.095920
H -2.695764 7.652265 4.661846
H -4.969883 7.808793 5.135069
C -1.926333 -3.873875 -0.811785
H -6.390201 6.068014 4.675142
C -2.977441 -5.192504 -2.528494
C -2.857829 -3.998386 -1.822200