107
H31 Ru4 Pt1 C59 N3 O9
H -1.136742 0.639220 -5.521665
H 1.617416 5.229895 -5.648717
H 0.151374 -3.311824 -2.700407
C 1.597052 4.686787 -4.871260
H 3.162295 2.220924 -3.410172
H 5.380455 3.935188 3.764213
H 3.383600 2.579993 5.929586
H 3.204994 0.196497 6.528265
H 4.937814 -2.011969 5.478704
H 5.498990 -3.383895 7.295128
H 3.828459 -4.425066 8.514301
H 1.608257 -4.203704 7.885362
H 1.031077 -2.938598 6.027566
H 2.487811 -4.244888 3.743967
H 2.114241 -4.834327 1.380210
H -0.063065 5.536197 -4.050259
H 3.091049 -3.279649 -2.200854
H 3.327351 -5.233292 -3.451618
H 2.007369 -7.098133 -2.991138
H 0.384491 -6.981018 -1.350670
H 0.067213 -5.020940 -0.110225
Pt 2.067732 0.304218 1.474581
C 1.087266 -1.410947 -0.888410
C 2.509542 2.899165 -3.537882
C 2.555315 3.262095 1.859146
C 2.928411 3.153988 3.209293
C 3.440068 4.393355 3.888529
H -1.289750 -3.114915 -4.488428
C 4.762233 4.586402 4.076096
H -2.313483 -1.244926 -5.174684
C 2.916751 1.972536 3.919297
H 0.311487 1.622476 -4.008612
C 3.178972 1.864429 5.339963
C 3.079660 0.572296 5.666355
C 2.742927 -0.150989 4.449489
H -0.138192 4.227333 -2.146264
C 2.614084 -1.531924 4.347119
C 2.924961 -2.355594 5.556296
C 4.257980 -2.475284 5.953435
C 4.589785 -3.273214 7.044563
H 2.156717 4.886270 -0.837926
C 3.603450 -3.898689 7.756424
H 2.822137 5.359880 1.475090
C 2.286003 -3.767417 7.383081
C 1.942197 -3.011956 6.286402
H 1.645940 5.227321 4.269365
C 2.297272 -2.199869 3.150954
C 2.329525 -3.633570 3.035470
C 2.099033 -3.960464 1.755590
C 1.824438 -2.723672 1.053359
C 1.415415 -2.656749 -0.257567
H 4.700670 7.399751 5.707672
C 1.541748 -3.938586 -1.033489
C 2.525792 -4.023527 -2.028298
H 6.174837 5.873387 4.827960
C 2.674633 -5.192109 -2.761396
C 1.886037 -6.295055 -2.497800
C 0.929674 -6.222984 -1.524282
C 0.738641 -5.055688 -0.781477
C 1.451851 -0.105945 -0.383637
Ru -0.804599 -0.154593 -0.626697
Ru -2.311429 -1.959718 -2.161642
Ru -2.228784 0.804082 -2.965732
Ru -3.656282 -0.026795 -0.812091
N 2.158330 2.250525 1.035622
N 2.615524 0.740891 3.415747
N 2.000496 -1.640031 1.941722
C 0.419939 -1.287397 -2.187506
C -0.208297 -2.399352 -2.891068
C -1.104320 -2.286097 -3.961197
C -1.683642 -1.075044 -4.437550
C 0.421112 0.124426 -2.529945
C -0.094914 0.747326 -3.744792
C -0.998217 0.174618 -4.646118
C 1.133712 0.816824 -1.420145
C 1.476395 2.214489 -1.364460
C 1.489495 3.098648 -2.593748
C 0.545183 4.087052 -2.792016
C 0.595174 4.864391 -3.916973
C 1.923527 2.845112 -0.233181
C 2.215706 4.251786 -0.133137
C 2.583672 4.509183 1.125245
C 2.583225 5.352158 4.367275
C 4.380601 6.653300 5.212582
C 5.239717 5.740828 4.731028
H 2.445722 7.177103 5.257857
C -1.240729 -0.858831 1.079936
C -2.289106 -3.057001 -0.663825
C -3.609313 -3.094323 -2.892677
C -3.868023 0.856720 -3.833940
C -2.410480 2.646916 -2.790295
C -1.642424 1.493778 -0.200896
C -4.225193 -0.858831 0.798467
C -5.103124 -0.732706 -1.790703
C -4.434000 1.667521 -0.366687
H 3.238515 3.616016 -5.316856
O -1.424039 -1.329867 2.097571
O -2.245753 -3.759695 0.244586
O -4.402098 -3.797017 -3.303535
O -4.854956 0.901765 -4.414118
O -2.643586 3.775602 -2.724349
O -1.687976 2.599298 0.135004
O -4.618858 -1.372338 1.747853
O -6.025680 -1.098210 -2.347620
O -4.897610 2.681665 -0.162092
C 3.054736 6.498862 4.989170
C 2.545974 3.726696 -4.676483