15
H9 C4 N1 O1
C 0.292881 -0.033293 -0.693880
H 1.859367 -0.990578 -1.613582
N -0.356761 0.005320 0.591937
H 1.285334 -1.798237 -0.356650
H 0.811420 -1.360621 1.476506
H 2.207040 -0.511131 -0.126557
C 1.518207 -0.910134 -0.698099
H 0.978489 0.111506 2.081403
H -2.183167 0.492811 1.262522
H -1.307358 1.755784 0.818810
H -1.967241 0.811370 -0.290668
O -0.221894 0.629566 -1.586915
C -1.550555 0.833894 0.595871
H -0.314322 -0.760508 2.443901
C 0.336167 -0.546527 1.741739