93
H34 Ru1 C53 N4 O1
H 5.014174 -0.069667 0.672155
H 3.421853 1.159653 -4.259240
H 1.697451 -0.099485 -5.771615
H 3.021722 -0.764972 -7.549463
H 4.629748 -2.464604 -7.314509
H 4.724389 -3.596337 -5.266179
H 3.503580 -2.876636 -3.511286
H -5.722466 2.032510 4.210149
H 3.725815 8.020531 -1.381916
H 1.611004 7.700664 -2.471411
H 3.177698 3.353995 -3.149834
H -4.532740 -5.966878 0.562227
H -4.937689 3.358061 5.995690
C 2.714929 2.552972 -2.932272
C 2.841260 1.372445 -3.537537
C 2.450234 -1.438590 -4.393535
C 2.326178 -0.801566 -5.653846
C 3.121531 -1.201400 -6.710293
C 4.064297 -2.221993 -6.590816
C -4.794670 2.216840 4.294201
C 4.137417 -2.857661 -5.378234
C 3.379717 -2.438852 -4.345424
C 3.270944 7.189689 -1.308119
C 2.024415 7.005359 -1.974886
H -1.601902 -4.286220 2.703409
H -1.807057 -4.779575 4.795445
H -2.295990 -3.436404 6.544284
H -2.242284 0.185142 4.748570
H -2.276573 -1.158029 6.465045
H -4.276938 1.213867 2.682465
H 0.990955 -3.624800 -3.693619
H -0.486868 -4.612864 -2.089994
H -3.614380 -3.843015 0.141988
H -3.146089 -7.797982 0.935048
H -0.836707 -7.494379 1.034365
H 0.139099 -5.390846 0.638979
H -2.696370 3.707746 6.219423
H -1.235497 2.986690 4.627857
H 4.634944 -1.624276 0.655201
H -1.557325 4.304109 2.349337
H 4.570701 -0.800211 2.024444
Ru 0.018079 0.222957 -0.419889
H 0.027387 5.259644 0.785516
C -1.264860 -2.076969 1.236569
H 3.725788 4.255315 0.062391
C -1.660732 -2.311448 2.593687
H 4.629430 6.362914 -0.102457
C -1.707629 -3.529924 3.269334
C -1.877237 -3.853858 4.594924
C -2.139410 -3.025727 5.702226
H 0.625070 5.561891 -2.306286
C -1.871678 -0.981831 3.195783
C -2.108155 -0.731087 4.535999
C -2.181618 -1.593102 5.625316
C -1.533853 0.017076 2.194826
C -1.649865 1.373801 2.413939
C -2.579491 1.940345 3.435621
C -3.928848 1.734329 3.396902
C -2.154966 2.761699 4.547737
C -1.018424 2.352377 1.588190
C 1.744355 2.382195 -1.884495
C 1.888622 0.456216 -2.855937
C 1.744628 -0.928971 -3.285182
C -4.330030 2.994822 5.361624
C -3.023611 3.218458 5.473685
C 0.911781 -1.839779 -2.533957
C 0.647456 -3.192437 -2.921666
C -1.027196 3.813465 1.732006
C -0.139636 -3.730519 -2.037495
C -0.179032 4.336638 0.864854
C -0.416601 -2.795314 -0.955164
C 0.402504 3.249632 0.030615
C -1.036533 -3.044702 0.201969
C 1.362525 3.371615 -0.974371
C -1.627375 -4.419046 0.370734
C 1.970861 4.740538 -1.136617
C -3.048475 -4.583046 0.327867
C 3.296324 4.943843 -0.432573
C -3.589732 -5.851672 0.564342
C 3.818759 6.178584 -0.563360
C -2.773147 -6.934611 0.802198
C -1.395092 -6.750281 0.846196
C -0.805298 -5.495209 0.619573
C -0.965673 -0.610459 1.073463
C 1.443211 5.727246 -1.850084
C -1.554369 0.560579 -1.238582
C 2.985235 -0.400377 0.775901
C 4.427807 -0.755484 1.056301
N -0.121966 2.066394 0.581254
N 1.240923 1.055289 -1.808443
N 0.270445 -1.669003 -1.369921
N 1.908779 -0.175386 0.537518
O -2.612469 0.734067 -1.602699