207
Mg2 H108 C86 N9 O2
C 3.050997 4.689401 -2.613699
H -0.307501 3.260974 -4.646340
C 3.267719 4.810280 -4.048374
H -2.469261 2.443419 4.665441
C 2.130954 4.347000 -4.643137
C 1.232720 3.942809 -3.570362
H -3.094890 4.685624 4.911487
C -0.059430 3.446880 -3.746891
C -1.044898 3.182726 -2.781549
C -2.398384 2.803090 -3.108301
H -0.750484 3.495717 5.583256
C -3.088075 2.700558 -1.932946
H 0.803366 3.611740 5.224411
H -3.357955 2.313906 3.343421
C -2.131231 3.016247 -0.854184
H 0.030530 5.565237 6.354124
C -2.362945 3.050514 0.547001
H 0.579830 5.937588 4.896191
C -2.784120 2.930445 3.864866
H -4.419753 3.795218 4.789557
H -0.995829 5.843151 5.156599
H 4.326791 5.171300 3.984744
H -3.900439 4.637056 3.530923
C -0.094868 3.976807 5.020734
H 5.512624 5.991552 3.291589
C -0.122129 5.465673 5.390208
H 4.231379 7.437788 4.629995
C 4.529882 5.872022 3.316227
H 4.089624 7.880292 3.097322
C 3.882444 7.178221 3.751681
H 2.911969 7.060040 3.806058
C 5.951519 6.304004 0.450288
H 6.487188 6.371999 1.281034
H 6.461291 5.756809 -0.196915
C 5.747064 7.703291 -0.130271
C -3.625108 4.117653 4.313846
C 4.487628 5.397139 -4.705819
C 4.439922 6.920543 -4.783629
H 5.335430 7.632058 -1.015530
C 1.783383 4.346730 -6.103630
H 5.291814 5.125430 -4.197840
C 0.882422 5.519098 -6.491745
C -2.916334 2.632833 -4.510698
H 4.570772 5.028295 -5.622039
C -3.103069 3.964934 -5.243622
H 5.267279 7.254310 -5.192177
H 3.673901 7.194950 -5.329367
H 4.348599 7.292085 -3.882226
H 2.617555 4.388822 -6.635815
H 1.324042 3.498416 -6.325690
H 0.627536 5.438421 -7.435680
H 0.076873 5.511273 -5.934068
H 1.364933 6.361206 -6.354774
H -2.282526 2.068370 -5.022385
C -4.550603 2.300145 -1.900324
C -5.499270 3.481687 -2.139539
C -1.418367 -2.405246 2.091305
C -3.806390 2.951221 0.997734
C -1.595561 -2.293540 3.551273
C -4.327067 1.591058 1.332582
C -0.423358 -2.710952 4.108773
C -5.552428 1.231388 1.839963
H -2.237547 4.418502 -5.325156
C 0.483055 -3.029609 3.033237
C -5.551065 -0.180310 2.012804
C 1.790198 -3.525269 3.218376
C -4.321615 -0.643591 1.613577
C 2.736138 -3.884129 2.262639
C -3.836377 -2.054480 1.538881
C 4.033740 -4.490685 2.544654
H -3.784582 2.157410 -4.479104
C 4.636198 -4.681717 1.332426
H -3.468360 3.797916 -6.137813
C 3.703887 -4.201977 0.325029
H -3.721883 4.531826 -4.738353
C 3.917883 -4.222753 -1.057440
C 3.006018 -3.867670 -2.060274
H -4.712803 1.612374 -2.593384
C 3.233643 -3.969932 -3.492600
H -4.755057 1.895685 -1.020261
H 2.062803 -3.627531 4.121263
C 2.069618 -3.606754 -4.099985
H -6.426128 3.161141 -2.142253
C 1.129130 -3.285399 -3.037233
H 4.776589 -4.507144 -1.348270
H -5.384776 4.143285 -1.425198
C -0.194369 -2.907921 -3.218381
H -0.473790 -2.820769 -4.121685
H -5.293453 3.895051 -3.004184
C -1.173023 -2.638640 -2.256188
H -2.371123 -1.142488 5.074021
H -4.357053 3.722366 1.063433
C -2.552406 -2.358567 -2.575304
H -3.926337 -2.461908 2.435069
H -4.430657 -2.553647 0.925756
C -2.215738 -2.336981 -0.323420
C -2.410651 -2.243894 1.075449
H -3.115336 -3.284859 5.671114
C -2.741867 -1.720982 4.361424
H 0.807455 -2.523967 5.735292
H -0.732765 -2.283827 6.087839
C -0.111225 -2.853417 5.571631
H -0.032169 -4.312873 7.041319
H -3.297981 -1.153281 3.770147
C -0.218904 -4.290748 6.079903
H -1.125317 -4.628563 5.915667
C -3.220289 -2.161868 -1.399328
H -4.396581 -2.353980 5.437836
H 0.429897 -4.852513 5.607393
C 4.518977 -4.917540 3.898484
H -3.954960 -3.400882 4.312665
H 5.507172 -4.987423 3.881516
C 3.930150 -6.262862 4.339460
C 5.959697 -5.332253 1.042832
H 4.274996 -4.223833 4.561951
C 5.823394 -6.773362 0.574959
H 4.273633 -6.493019 5.227172
C -3.631923 -2.786232 5.003493
C 4.495806 -4.488796 -4.123464
H 2.954223 -6.196217 4.372666
C 4.539423 -6.004375 -4.118910
H 4.189125 -6.957109 3.699123
C 1.723409 -3.627261 -5.568750
H 6.429941 -4.809342 0.344099
C 0.977834 -4.882463 -5.950210
H 6.514449 -5.311207 1.861958
C -3.109884 -2.245513 -3.963001
H 6.713451 -7.145983 0.401083
C 3.737963 5.083608 -0.242972
C -2.921786 -0.838671 -4.536199
H 5.379047 -7.302479 1.270131
H 4.788857 5.435723 -1.914599
H 5.290451 -6.800614 -0.246603
H 4.553053 -4.161774 -5.056756
H 5.276820 -4.137490 -3.628214
C 1.021451 -6.363505 -0.191814
H 5.392678 -6.306843 -4.490518
C 1.442626 -7.012153 1.097113
H 4.449463 -6.331127 -3.199287
C -1.008096 -5.701367 0.803583
H 3.802025 -6.355411 -4.661572
C -0.578743 -6.350554 2.092043
H 2.556219 -3.568170 -6.101834
C -4.686906 -1.810293 -1.399459
H 1.165931 -2.836958 -5.785454
C -5.604223 -3.039593 -1.484020
H 0.672516 -4.812040 -6.877464
H 1.573476 -5.656577 -5.859402
H 0.204997 -4.995518 -5.360523
H -2.657359 -2.901715 -4.552419
H -1.964941 -0.635227 -4.597778
N -0.077422 3.636563 1.294582
N 2.613466 4.590377 0.361469
H -4.074907 -2.464606 -3.945787
N 1.818821 4.163522 -2.359937
H -3.322516 -0.794421 -5.429044
N -0.899054 3.275275 -1.426784
H 0.555295 -7.027263 -0.759705
H -3.355229 -0.184627 -3.950249
H 1.821547 -6.047816 -0.680233
C -6.623767 -1.043464 2.619548
N -0.124855 -2.813484 1.829068
H -4.896812 -1.309777 -0.571135
H 1.951035 -6.363505 1.645479
C -7.616050 -1.471669 1.575673
N 2.565760 -3.734379 0.922522
H -4.873640 -1.215340 -2.169574
H 2.035542 -7.780060 0.903883
N 1.727498 -3.439466 -1.820505
H -6.535170 -2.747917 -1.569669
H -1.599650 -4.933459 1.000004
N -0.990377 -2.603294 -0.905183
H -5.357515 -3.578963 -2.265668
H -1.519231 -6.350014 0.259534
H -5.506085 -3.578963 -0.670928
H -1.377477 -6.663006 2.586964
H -0.107136 -5.686257 2.655121
N -3.581491 0.438927 1.208657
H 6.613950 8.155509 -0.205812
H 5.160963 8.220266 0.461519
O 0.143661 -5.249419 0.065548
O 0.291550 -7.466799 1.833687
H -7.089922 -0.538092 3.333714
H -6.210770 -1.844020 3.030635
H -8.322098 -2.005912 1.994141
H -8.012691 -0.678398 1.157538
H -7.162162 -2.005912 0.892903
C -1.381566 3.291194 1.557961
H -7.170341 1.822833 2.953372
C -1.587383 3.311970 3.023259
H -6.284373 3.053213 2.431897
C -0.408365 3.715621 3.572770
H -8.375256 2.880528 1.295526
C 0.530761 3.923382 2.487722
Mg 0.874107 3.875624 -0.528520
H -7.132176 2.823866 0.291130
C 1.835178 4.406630 2.665206
H -7.896834 1.477464 0.695160
Mg 0.803366 -3.121078 0.008559
C 2.787933 4.762792 1.704536
C -6.664658 2.175488 2.177382
H -2.838641 0.430562 0.963976
C 4.058274 5.415757 1.969599
C -7.598331 2.354379 1.012937
C 4.649828 5.617042 0.759863
H 2.111872 4.507542 3.567732
C 3.949232 5.105464 -1.617813