75
Co1 H28 C38 N4 O4
H 2.778771 4.504992 0.153168
H 0.283106 -6.171681 4.391473
H -1.011452 -5.286590 4.517123
H 3.723349 0.297605 1.955748
Co 0.044991 0.260127 -0.321064
H 5.333071 -3.899093 4.607534
C -3.445733 -0.212498 -3.750401
C -2.147511 2.370940 -3.259704
H 4.795276 -2.678352 5.442983
C -4.786100 -0.516508 -3.491969
H -5.072863 -0.593899 -2.610675
N -1.335778 -1.070010 -0.707556
H -2.779673 2.431229 -3.938028
C -3.953295 -0.304428 -6.110290
H -3.677526 -0.230456 -6.995344
C 1.388015 2.956297 -0.276969
C 2.527739 1.462547 0.867324
C 3.268925 2.687136 0.919209
H -0.582681 -7.193597 2.522113
H 3.682121 -5.222453 5.513645
H -6.586387 -0.888930 -4.325155
C -3.040783 -0.099831 -5.086786
N -0.790653 1.482643 -1.612343
C -5.694947 -0.704429 -4.517766
H -5.874517 -0.767069 -6.519725
H -2.158505 0.111608 -5.288104
C 2.228149 -1.831316 2.670923
H 4.606543 -4.634530 6.634957
C -5.272589 -0.616775 -5.825903
C 2.047662 -0.779255 1.708837
C 0.559791 5.025784 -1.366894
C 0.702715 -3.688724 3.567276
C 2.557056 3.607502 0.254660
H 3.193799 -4.008126 6.375137
H -1.857999 -6.287127 2.601143
C -0.852037 -2.707000 1.057414
C 2.881383 0.327108 1.561842
C 0.051313 5.923489 -0.435789
H 0.685307 8.676035 -2.004412
C 0.304178 -2.110526 1.540068
H 1.489710 4.932572 -3.154502
C 0.664235 7.760586 -1.840366
C -0.422350 -5.732984 3.889731
H -1.167202 -3.467237 1.491738
C 1.136982 5.522419 -2.526813
C 3.369705 -1.948473 3.617230
H 1.589574 7.217987 -3.540368
H -2.948249 -3.811439 -0.369986
C 1.194702 6.891957 -2.762429
C 4.539662 -3.504437 5.001385
C -1.178196 -6.729672 3.114378
C 0.098954 7.288324 -0.672319
C -1.559325 -2.244358 -0.023062
H -1.423731 4.263409 -3.052146
C 3.956058 -4.418603 5.962018
H -3.653705 -2.554354 -2.347649
N 1.374272 1.621392 0.116114
C -2.247374 -1.074499 -1.747517
C -0.528627 2.832940 -1.780250
N 0.855716 -0.949860 1.025480
C -2.608348 -2.993265 -0.654489
O 0.787003 -3.574346 4.759871
H -1.587727 -7.358215 3.713009
O 0.156673 -4.754039 2.964873
C -1.795699 1.192530 -2.525279
H -0.324319 5.606011 0.353291
C -1.390749 3.375326 -2.780944
O 4.036681 -1.020197 4.026466
C -3.007801 -2.296951 -1.731504
O 3.557521 -3.232709 3.971594
H -0.248277 7.882874 -0.047310
C 1.119575 -2.637091 2.588619
C 0.462676 3.552130 -1.113847
H 4.089820 2.818189 1.335800
C -2.448017 -0.037832 -2.656711