150
Fe1 H76 C68 I1 N4
Fe -0.006011 -0.026922 -0.031041
C -5.488869 0.126173 -5.351782
H -1.243655 -7.658172 -2.736959
C -5.510578 0.947894 -4.233916
H 0.921384 5.237477 2.099509
H -3.529084 -1.703136 -7.172736
C -4.427072 0.916101 -3.363352
H 1.416758 4.689662 3.520711
H -5.030993 -1.250700 -7.492037
H -4.758637 -2.524858 -6.562308
C 0.317463 4.851072 -0.242030
H -0.868671 5.222803 3.711665
C -0.821305 5.574969 -0.038554
H -0.738413 3.633163 3.814968
H -6.862494 2.398135 -4.774849
C -0.791701 6.968961 0.042836
H -1.223919 4.308149 2.446983
H -6.430276 2.491068 -3.237823
H 2.504211 3.207629 4.453570
H -7.456548 1.358755 -3.713644
H 3.358780 1.872331 4.206268
C 1.596355 6.898039 -0.348464
H -2.522548 7.333356 1.078999
C 1.545042 5.499156 -0.395420
H 1.775953 1.488372 5.968683
C 0.431931 7.602372 -0.113684
H 1.414784 0.541925 4.732175
C 7.260587 1.759833 3.295322
H 0.572057 1.877222 4.988868
C 4.898188 -1.683571 6.147116
H -2.635043 7.705087 -0.473680
H 5.160677 -3.380818 1.100911
C 0.131944 -7.450296 2.738111
H -1.835735 8.668653 0.521787
H 5.069891 -2.128671 2.090118
C -0.452241 -7.976100 -2.251747
H 3.621269 7.147490 -0.016641
H 2.865380 8.529254 -0.295247
C 0.842440 2.667151 0.830132
H 6.601405 -1.644442 0.374659
C -4.436940 -1.632214 -6.812114
H 3.185103 7.533895 -1.506712
C 1.266764 3.202737 2.095753
H 5.348169 -0.658865 0.233791
C -6.667108 1.882113 -3.967206
H 5.482374 -1.925686 -0.733503
C 1.979234 2.226943 2.728406
C 2.008838 1.078734 1.826851
H 2.456845 -5.356863 -0.004120
I -1.706464 0.052560 1.831860
C 2.784463 -0.064584 1.893842
H 3.958755 -4.901981 0.312051
C -2.056778 7.736880 0.315181
N 1.208740 1.335277 0.727768
C 2.549604 -1.204968 1.118755
H 3.755474 -5.469360 -1.973141
C 2.936430 7.590144 -0.561331
N 1.321038 -1.417735 0.515527
C 3.380490 -2.364671 0.943765
H 4.120590 -3.918850 -1.838534
N -0.917419 -1.404284 -1.115725
C 2.620654 -3.324080 0.344294
H 2.616707 -4.361503 -2.157835
N -0.663614 1.358266 -1.316070
C 1.306236 -2.758657 0.143009
H -2.370581 -5.224800 -0.489332
C 0.114182 -3.407719 -0.225752
H -3.823150 -4.652530 -0.836806
C -1.002876 -2.731266 -0.677782
H -3.554741 -5.197899 1.498472
C -2.362686 -3.221854 -0.906927
H -4.016563 -3.681627 1.266823
C -3.027789 -2.228940 -1.584659
H -2.487023 -4.009337 1.608036
C -2.098224 -1.130866 -1.775300
H -4.869158 -3.124030 -1.788448
C -2.236376 0.013675 -2.574178
H -4.683640 -1.852318 -2.749481
C -1.413385 1.128869 -2.446771
H -6.175681 -1.328959 -0.952631
C -1.308784 2.273409 -3.337370
H -4.879026 -0.394740 -0.877501
C -0.643681 3.246758 -2.640856
H -5.017178 -1.651779 0.102314
H -1.669953 3.288333 -5.091020
C -0.266723 2.686716 -1.365844
C 0.287859 3.339691 -0.257995
H -2.654779 2.043523 -4.875022
C 0.830599 4.494014 2.747502
H -1.032480 1.662009 -6.603003
C -0.633813 4.405973 3.223323
H -0.981166 0.541925 -5.460407
C 2.452898 2.268518 4.143034
H 0.114182 1.710921 -5.488581
H -0.246987 5.276606 -2.546005
C 1.462151 1.468807 5.042085
C 4.866611 -2.439262 1.173537
H -0.775912 4.814388 -3.985989
C 5.644209 -1.593084 0.174313
H 1.576619 5.337746 -4.073640
C 3.133790 -4.654975 -0.175979
H 1.335840 3.804355 -4.461809
C 3.433777 -4.596281 -1.669493
H 1.866739 4.185869 -2.999913
C -2.984370 -4.459327 -0.348464
H 5.032393 1.339190 1.886642
C -3.288305 -4.324819 1.138476
H 6.729689 0.033240 5.283126
C -4.507989 -2.204484 -1.840099
H 3.183130 -1.468359 4.121747
C -5.208617 -1.314286 -0.799241
H 0.274043 -4.909318 1.946119
C -1.717319 2.346777 -4.784241
H -0.231198 -8.570381 0.330833
C -0.825252 1.488372 -5.660753
H -0.162122 -5.327515 -2.042010
C -0.183832 4.567382 -3.231562
H -2.638990 -1.372980 -4.824936
C 1.284527 4.464667 -3.738687
H -6.215153 0.157965 -5.964401
C 3.937045 -0.089040 2.862074
H -4.413257 1.493263 -2.611743
C 5.022525 0.774257 2.649520
H -1.652190 5.120088 0.052227
C 6.084322 0.813386 3.542623
H 2.338429 4.997808 -0.533157
C 6.011299 0.011229 4.660176
C 4.949502 -0.822720 4.916869
H 0.471403 8.548819 -0.057337
H 7.380977 2.344332 4.071661
C 3.913362 -0.876523 3.980566
H 7.077043 2.307648 2.500200
C 0.056947 -4.892199 -0.077997
H 8.075684 1.236475 3.148193
C 0.147733 -5.464469 1.186684
H 5.419219 -1.260483 6.863978
C 0.053000 -6.841342 1.353222
H 5.275146 -2.566433 5.946771
C -0.144360 -7.631271 0.224399
H 3.968623 -1.783841 6.438243
C -0.215409 -7.095684 -1.042473
H -0.187779 -8.377179 2.703676
C -0.114756 -5.713920 -1.176768
H -0.426585 -6.931829 3.351669
C -3.371196 0.057696 -3.576845
H 1.061510 -7.435623 3.048020
C -3.365275 -0.776254 -4.684694
H -0.594341 -8.900537 -1.960620
H 0.329304 -7.934525 -2.843393
C -4.429045 -0.744461 -5.601275