73
Ni1 H27 C39 S1 N5
Ni 0.351471 -0.223105 0.836942
H -5.708978 -7.447554 2.868410
H 6.429895 6.909937 -1.175688
C 3.780716 3.011245 -0.596759
C -1.676571 -2.826694 1.788964
C -4.057214 -6.229212 2.991217
H -5.147795 -7.307413 4.361783
C 5.123390 2.948118 -0.237285
H -4.384937 -8.235373 3.302482
H 6.377284 6.413763 -2.695848
H 7.470056 5.810274 -1.695175
C 2.020442 1.342180 -1.117359
S -1.464154 -0.445689 -3.982676
N -2.727693 1.704526 -3.037104
C 5.585928 5.045181 -1.380610
C 2.793165 1.981020 -0.164472
C 3.187747 2.590822 2.237172
H 2.852352 2.036572 -2.965688
N -0.912616 -1.396753 -0.075571
C 1.677375 1.194464 3.110166
H 3.868401 3.243550 2.117813
C 0.127545 -0.538990 3.803499
N 0.922189 0.515980 -0.864661
H 2.842488 2.554209 4.267604
H -1.428861 -5.422456 1.216665
C 0.346758 0.311956 -2.104689
N 1.615996 0.954331 1.750122
C 2.634236 2.209538 3.407373
H 2.446810 4.161410 -1.635343
H -2.689331 -7.261962 1.899588
C -4.898989 -7.408415 3.419047
C -2.509577 -3.997059 2.198848
H -1.528602 1.502521 -6.029258
C -1.355425 -1.278832 -1.382627
C -1.016742 -2.091902 2.769421
H 3.934164 5.834262 -2.263502
C 6.550461 6.141057 -1.771426
C -0.789857 -0.444300 -2.336526
C 2.154162 1.558073 -2.534608
H 0.918901 0.965946 -4.064713
H -0.352529 -1.259894 5.754073
N -0.218810 -0.978476 2.537832
C -0.439118 -1.369734 4.814278
H 1.065773 0.795505 4.973117
C 0.969320 0.517748 4.070190
C -2.180758 -5.289890 1.782392
H -3.877460 -2.973147 3.303359
H -2.517249 3.633672 -6.223339
H -1.588886 -3.066575 4.583824
C 3.356540 4.103333 -1.367630
C -2.940329 -6.390816 2.183807
H -3.149676 -3.701627 -0.424976
H -2.872373 -2.334307 -2.468622
H -5.154371 -4.808866 3.952641
C 1.112904 0.960896 -3.135407
C -2.123763 1.207089 -4.097697
C -1.995524 1.888856 -5.297721
H -3.589197 4.542694 -4.374789
C -3.629751 -3.843031 3.010341
C 4.246542 5.100732 -1.746009
H -3.672497 3.320565 -2.405775
H 6.920930 3.898803 -0.352666
C -1.124156 -2.345670 4.175163
C 2.549840 1.818154 1.202648
C -2.566572 3.150123 -5.406594
H 5.440152 2.212063 0.272846
C -4.392609 -4.940169 3.399507
C -2.554515 -2.970622 -0.537300
C -3.193519 3.680386 -4.330066
C -2.392298 -2.237093 -1.653765
C -3.245033 2.936755 -3.163299
C -1.656841 -2.440360 0.451794
C 6.010103 3.955617 -0.617561