174
Mn2 H88 C74 N8 Cl2
H -8.055967 -1.931727 -3.215813
Mn -4.724601 -0.232150 -1.082758
H -8.350366 -1.123980 -5.322428
H -7.251248 2.308021 -6.245883
H -4.820201 3.297173 -3.616342
H -10.492484 -0.226757 -5.395046
H -9.973361 -0.082123 -3.888272
H -7.633363 4.527790 -5.597856
H -8.438109 3.560702 -4.609339
H -0.565921 -4.305936 -0.541105
H -8.283198 0.225532 -6.174486
H -9.571423 -3.265304 -1.924410
H -9.470328 -4.358642 -0.762895
H 0.358914 2.505361 -0.936565
H -9.186603 -5.373534 -2.847167
H -0.007784 3.854873 -1.714548
H -7.936330 -4.423605 -3.154730
H -9.964969 1.187718 -4.862200
H -7.840417 -5.519394 -1.993004
H -3.248787 4.896731 -3.165207
H -8.719954 -4.380705 1.425163
H -1.762228 5.080588 -2.601716
H -7.269807 -6.089351 2.148739
H -1.712538 4.955565 -4.972895
H -7.096474 -5.895688 0.569699
H -0.921999 3.705336 -4.361139
H -6.008488 -5.288959 1.574881
H -2.408931 3.515350 -4.923322
H -5.878953 2.946618 -5.723035
H 5.667908 2.611998 -2.437316
H -7.060728 4.223813 -4.134845
C -6.896133 -0.312557 -3.182658
H 2.933036 1.849604 -4.685615
C -7.429997 -1.464729 -2.673860
H 4.287661 2.509038 -4.140877
C -7.134367 -2.007721 -1.432970
H 0.096593 -1.068823 -4.080235
C -7.865177 -3.071641 -0.789658
C -6.655032 1.548078 -4.433556
C -7.349806 0.375069 -4.366505
C -7.368826 -3.199116 0.466380
C -6.289585 -2.239381 0.572870
H -0.215947 -1.131335 -0.810181
H 0.880270 1.144818 -3.803416
H 0.142545 0.653306 -2.469570
H 0.970009 -1.543175 -2.827668
H 1.694145 -1.050438 -4.166976
H 2.705320 4.207879 -4.574848
H 1.664837 3.519027 -3.573648
H 3.011106 4.171107 -3.004548
H 7.618833 3.762944 -2.406933
C -2.296176 1.497823 -0.783839
C -1.650089 2.658575 -1.371276
C -2.542308 3.229759 -2.214209
C -3.713560 2.388918 -2.221418
C -4.763127 2.493104 -3.112325
C -5.727390 1.551755 -3.339729
C -8.426211 -0.139731 -5.265308
C -8.952661 -3.883065 -1.459619
C -8.434074 -4.886925 -2.449906
C -7.755643 -4.176010 1.517177
C -7.546471 3.847519 -4.898166
C -6.962077 -5.478945 1.445950
C -9.840842 0.216952 -4.812500
C 4.263786 1.398541 -1.678757
C 3.244182 1.502726 -2.685670
C 0.336779 -3.990927 -0.322404
C 2.176652 0.786909 -2.256602
C 2.560794 0.193663 -0.979695
C -1.778707 0.656983 0.194059
N -6.170866 -1.528466 -0.594393
C -0.303902 3.238339 -0.998288
C -2.371095 4.449345 -3.061075
C -1.801975 4.126982 -4.456984
C -6.782948 2.653673 -5.445063
H -5.667908 -2.611998 2.437316
C 5.434292 2.136421 -1.649364
C 0.922895 -0.914383 -3.576685
C 0.295079 -0.508672 -0.306878
C 3.334364 2.343567 -3.926322
C 2.614555 3.680822 -3.754943
C 0.934996 0.511123 -3.045670
N -3.852772 -0.563829 0.674213
Cl -3.137405 -1.627136 -2.316913
N -3.571261 1.374026 -1.298625
H 4.820201 -3.297173 3.616342
N -5.883346 0.405712 -2.578301
H -0.358914 -2.505361 0.936565
Mn 4.724601 0.232150 1.082758
H 0.007784 -3.854873 1.714548
H 3.248787 -4.896731 3.165207
H 1.762228 -5.080588 2.601716
H 1.712538 -4.955565 4.972895
H 0.565921 4.305936 0.541105
H 0.921999 -3.705336 4.361139
H -0.941822 4.759451 0.245878
H 2.408931 -3.515350 4.923322
H -0.654956 3.394004 1.031209
H 5.878953 -2.946618 5.723035
H -7.618833 -3.762944 2.406933
H 7.060728 -4.223813 4.134845
H 8.055967 1.931727 3.215813
H 7.251248 -2.308021 6.245883
H 7.633363 -4.527790 5.597856
H 8.438109 -3.560702 4.609339
H 0.941822 -4.759451 -0.245878
H 8.283198 -0.225532 6.174486
H -2.933036 -1.849604 4.685615
H -4.287661 -2.509038 4.140877
H -2.705320 -4.207879 4.574848
H -3.011106 -4.171107 3.004548
H 0.654956 -3.394004 -1.031209
H -1.664837 -3.519027 3.573648
H 9.964969 -1.187718 4.862200
H -0.880270 -1.144818 3.803416
H 8.350366 1.123980 5.322428
H -0.142545 -0.653306 2.469570
H 10.492484 0.226757 5.395046
H 9.973361 0.082123 3.888272
H 9.571423 3.265304 1.924410
C -5.434292 -2.136421 1.649364
C 2.296176 -1.497823 0.783839
H 9.470328 4.358642 0.762895
H 9.186603 5.373534 2.847167
C 1.650089 -2.658575 1.371276
H -0.096593 1.068823 4.080235
C 2.542308 -3.229759 2.214209
H -0.970009 1.543175 2.827668
C 3.713560 -2.388918 2.221418
H -1.694145 1.050438 4.166976
C 4.763127 -2.493104 3.112325
H 0.215947 1.131335 0.810181
C 5.727390 -1.551755 3.339729
H 8.719954 4.380705 -1.425163
H 7.936330 4.423605 3.154730
H 7.840417 5.519394 1.993004
H 7.269807 6.089351 -2.148739
H 7.096474 5.895688 -0.569699
H 6.008488 5.288959 -1.574881
C -4.263786 -1.398541 1.678757
C -3.244182 -1.502726 2.685670
C -2.176652 -0.786909 2.256602
C -2.560794 -0.193663 0.979695
C 1.778707 -0.656983 -0.194059
C 0.303902 -3.238339 0.998288
C 6.655032 -1.548078 4.433556
C 2.371095 -4.449345 3.061075
C 7.349806 -0.375069 4.366505
C 1.801975 -4.126982 4.456984
C 6.782948 -2.653673 5.445063
C -0.336779 3.990927 0.322404
C 6.896133 0.312557 3.182658
C 7.429997 1.464729 2.673860
C 7.134367 2.007721 1.432970
C 7.865177 3.071641 0.789658
C 7.368826 3.199116 -0.466380
C -3.334364 -2.343567 3.926322
C 6.289585 2.239381 -0.572870
C -2.614555 -3.680822 3.754943
C -0.934996 -0.511123 3.045670
N 3.571261 -1.374026 1.298625
N 5.883346 -0.405712 2.578301
C 7.546471 -3.847519 4.898166
C -0.922895 0.914383 3.576685
C -0.295079 0.508672 0.306878
C 9.840842 -0.216952 4.812500
N 3.852772 0.563829 -0.674213
Cl 3.137405 1.627136 2.316913
C 8.426211 0.139731 5.265308
C 8.952661 3.883065 1.459619
C 8.434074 4.886925 2.449906
C 7.755643 4.176010 -1.517177
C 6.962077 5.478945 -1.445950
N 6.170866 1.528466 0.594393