97
Fe2 Cu1 H34 C54 N6
H 4.333141 3.219858 2.223881
H 6.712287 3.004962 3.002167
H 7.679931 0.955392 1.975177
C -1.058626 -0.359055 5.636133
C -1.488029 -0.205942 6.947099
H 5.467444 5.084977 -0.123380
H 4.938556 3.360436 -1.844583
H 6.941868 1.879445 -2.079852
H 7.797273 4.666825 0.711110
C 0.415288 0.635734 2.930644
C 1.422046 0.981358 3.875415
C 2.572845 1.125518 3.206226
C 2.284932 0.902563 1.821779
C 3.231319 0.984940 0.779322
C 2.946638 0.624094 -0.541140
C 3.906289 0.583801 -1.598843
H -8.698593 -2.682618 0.510685
C -1.900936 0.038502 2.354908
C -0.916626 0.422629 3.255924
C -1.328512 0.617826 4.685738
N -1.705196 -0.214896 1.002075
C -2.171162 0.928530 7.313256
C -2.430164 1.899143 6.381697
C -2.028821 1.748716 5.066077
C 4.613570 1.403092 1.184791
C 4.918149 2.529505 2.007291
C 6.266728 2.414894 2.437083
C 6.809221 1.259828 1.862445
C 5.812667 0.634839 1.084480
C 6.035446 4.405368 -0.407175
C 5.736140 3.439231 -1.373769
C 6.867042 2.605614 -1.504497
C 7.853393 3.056000 -0.622303
C 7.348313 4.171669 0.064982
C -2.622332 1.100447 8.679077
N 0.949107 0.581115 1.652521
N -3.011771 1.231175 9.738615
Fe -6.178127 -2.554845 -0.422691
H -1.302663 -1.087016 -4.791470
H -3.402910 -1.331460 -3.572246
H -4.807609 -0.802278 1.533995
H 8.698593 2.682618 -0.510685
H 2.882525 -2.670083 -6.638979
H 2.229493 -2.406835 -4.440359
H -4.333141 -3.219858 -2.223881
H -6.712287 -3.004962 -3.002167
H -7.679931 -0.955392 -1.975177
H -5.467444 -5.084977 0.123380
H -4.938556 -3.360436 1.844583
H -6.941868 -1.879445 2.079852
H -7.797273 -4.666825 -0.711110
C -0.415288 -0.635734 -2.930644
C -1.422046 -0.981358 -3.875415
C -2.572845 -1.125518 -3.206226
C -2.284932 -0.902563 -1.821779
H 3.656300 0.052829 -3.536000
C -3.231319 -0.984940 -0.779322
C -2.946638 -0.624094 0.541140
H 0.586709 1.121936 -5.391960
C -3.906289 -0.583801 1.598843
H 1.314567 0.869433 -7.575574
C 1.900936 -0.038502 -2.354908
C 0.916626 -0.422629 -3.255924
C 1.328512 -0.617826 -4.685738
H -5.919805 0.145055 -0.588215
C 2.171162 -0.928530 -7.313256
C 2.430164 -1.899143 -6.381697
C 2.028821 -1.748716 -5.066077
C -4.613570 -1.403092 -1.184791
C -4.918149 -2.529505 -2.007291
C -6.266728 -2.414894 -2.437083
C -6.809221 -1.259828 -1.862445
C -5.812667 -0.634839 -1.084480
C -6.035446 -4.405368 0.407175
C -5.736140 -3.439231 1.373769
C -6.867042 -2.605614 1.504497
C -7.853393 -3.056000 0.622303
C 3.273834 0.176394 -2.696081
C -7.348313 -4.171669 -0.064982
C 2.622332 -1.100447 -8.679077
N -0.949107 -0.581115 -1.652521
C 1.058626 0.359055 -5.636133
N 3.011771 -1.231175 -9.738615
C 1.488029 0.205942 -6.947099
H -3.656300 -0.052829 3.536000
H -0.586709 -1.121936 5.391960
H -1.314567 -0.869433 7.575574
H 5.919805 -0.145055 0.588215
N 1.705196 0.214896 -1.002075
Fe 6.178127 2.554845 0.422691
Cu 0.000000 0.000000 0.000000
H 1.302663 1.087016 4.791470
H 3.402910 1.331460 3.572246
H 4.807609 0.802278 -1.533995
H -2.882525 2.670083 6.638979
C -3.273834 -0.176394 2.696081
H -2.229493 2.406835 4.440359