98
Zn1 H50 C41 N5 O1
Zn 0.661310 0.159293 -0.121005
H 1.026295 -2.520711 -0.247305
H 1.660558 -2.098403 0.999428
H -3.156372 -1.051508 3.095212
H 1.034823 0.906698 4.174464
H 3.329768 2.099075 3.851806
H 4.414902 2.342913 -0.788225
H 4.171372 2.071882 -3.346493
H 0.012678 0.017639 -4.420342
H -4.978385 -4.318535 2.220852
H -2.124938 -1.295636 -4.154890
H -6.932546 -3.024614 2.071479
H -2.989863 -3.482108 1.351523
H -6.829038 -0.897058 1.128899
H -4.800118 -0.092262 0.299439
H -0.493646 1.764950 5.368892
H -1.457826 1.470447 6.611755
H -2.076262 1.945067 5.214132
H -0.520339 -1.851057 5.570336
H -0.545498 -0.884003 6.845195
H 0.463975 -0.591071 5.638439
H -3.577854 -0.042253 5.189630
H -2.968555 -0.463677 6.608145
H -2.972873 -1.509291 5.396654
H 4.797346 4.194177 0.224840
H 5.929655 4.839383 1.153631
H 4.392397 4.923799 1.590412
H 6.347004 1.307609 1.695338
H 4.923935 3.905897 3.775744
H 7.203391 2.635402 1.441070
H 6.194212 2.106655 0.317211
H 5.664001 2.489264 3.856485
H 3.202787 -0.760833 -5.642125
H 6.470907 3.787775 3.383362
H 2.531879 -0.214425 -6.988376
H 1.609815 -0.661914 -5.759305
H 1.504546 2.960026 -5.698054
H 0.544466 1.682882 -5.788760
H 1.499912 2.054557 -7.017589
H 4.597183 1.249242 -5.529368
H 3.942939 2.709127 -5.487755
H 3.920195 1.860468 -6.844334
H -3.202578 -3.983220 -0.840528
H -2.424356 -4.344996 -2.191285
H -5.479238 -1.562930 -2.264126
H -5.181050 -2.510081 -1.009111
H -3.939054 -4.820089 -1.988701
H -5.792253 -3.129894 -2.351981
H -4.067939 -2.257703 -4.502096
H -4.523760 -3.747465 -4.136156
H -2.967467 -3.390783 -4.244850
C -2.456433 -1.160555 0.359314
C -1.794009 -0.651161 1.493085
C -2.310678 -0.703016 2.839499
C -1.387200 -0.169220 3.679894
C -0.273371 0.219688 2.822383
C 0.923125 0.799237 3.237184
C 1.977129 1.238475 2.435985
C 3.137730 1.924783 2.937845
C 3.908926 2.281664 1.884497
C 3.196467 1.779896 0.704001
C 3.583697 1.911057 -0.628528
C 2.885378 1.477920 -1.746194
C 3.348748 1.668561 -3.093902
C 2.417657 1.175944 -3.941094
C 1.348425 0.663501 -3.086415
C 0.159543 0.068700 -3.483055
C -0.846602 -0.462045 -2.675796
C -1.953904 -1.178856 -3.227639
C -2.721837 -1.666898 -2.218893
C -4.956022 -3.458926 1.818474
C -2.078993 -1.137678 -0.989081
C -3.783455 -2.961733 1.308107
C -6.107921 -2.688735 1.739264
C -6.048096 -1.435078 1.178228
C -4.848337 -0.960763 0.681723
C -1.492709 -0.054836 5.192962
C -1.368709 1.415390 5.637290
C -0.427828 -0.924160 5.873118
C -2.879557 -0.564229 5.637358
C 5.209843 3.044229 1.899236
C 5.069527 4.369567 1.148802
C 5.602512 3.332478 3.362447
C 2.505763 1.186620 -5.455484
C 6.342164 2.196256 1.281789
C 2.457903 -0.240901 -6.011722
C 1.419127 2.045268 -6.042014
C 3.866505 1.808873 -5.867077
C -5.182268 -2.455390 -1.986762
C -3.826964 -2.697886 -2.492537
C -3.293980 -4.104056 -1.809414
C -3.848719 -3.054766 -3.976830
N -0.563794 -0.073137 1.508535
N 2.038041 1.152610 1.080963
N 1.670391 0.853532 -1.763295
N -0.922742 -0.462045 -1.318847
N -3.750824 -1.730953 0.742911
O 1.568145 -1.821394 0.096811