106
Fe2 B1 H42 C52 N3 O4 F2
H 2.166065 -4.900257 -5.123263
H 2.494727 -5.707357 -3.768660
H 4.416363 -5.753647 -5.086091
H 4.714583 -4.791061 -3.843221
H 4.367216 -4.165558 -5.273726
H -0.281122 -2.175106 -4.104622
H -1.883078 -2.579843 -6.197742
H -4.314989 -2.159676 -6.708828
H -5.264059 -0.687905 -4.877032
H -2.008108 -4.169119 -2.493451
H -2.916512 -5.331106 -4.544222
H 3.797848 -6.574990 0.071255
C 1.366721 -3.583971 -2.891431
C 2.724612 -4.908565 -4.306271
C 4.181622 -4.903818 -4.657694
H 7.049607 0.741137 3.642147
C -0.907384 -1.561473 -3.739209
C -2.145865 -1.365632 -4.462653
C -2.478238 -2.055228 -5.676297
C -3.836267 -1.822593 -5.960408
C -4.367837 -0.996502 -4.935086
C -3.332901 -0.710457 -4.010541
C -2.902426 -4.121642 -2.810114
C -3.406857 -4.768510 -3.955764
H -5.375740 -4.724594 -4.754875
H -5.973108 -3.199412 -2.840618
O 0.435330 -4.340034 -3.019777
O 2.525007 -3.691980 -3.532298
Fe -3.903564 4.400625 1.653417
B 0.483145 0.844398 -0.329249
H 2.158955 -4.951294 -0.303740
H 6.051935 -6.001711 -0.060861
H 6.663937 -3.842718 -0.640842
H 5.041752 -2.214274 -1.007668
H -1.111485 -0.227383 -2.288933
H -3.412657 -0.177533 -3.227672
H -3.889730 -2.862328 -1.425898
H 2.717212 0.074092 5.218532
H 4.551826 -0.526485 6.533245
H 6.718593 -0.178720 5.746886
H 5.229581 1.302547 2.306570
H 3.050914 3.303681 6.455707
H 2.843907 4.786134 5.864077
H 5.055892 4.507210 6.707737
H 5.079675 4.827676 5.139991
H 5.292400 3.327419 5.653079
H -0.420244 3.162438 0.574720
H -0.732665 3.935118 3.232033
C -4.784142 -4.429053 -4.073010
C -5.117998 -3.579223 -3.006333
H -2.036246 4.506023 -0.290737
H -3.344771 1.784433 2.166143
H -4.458002 3.157690 3.992367
H -6.307392 4.508397 2.927131
H -4.437090 2.338721 -0.015077
C 0.572901 -1.316969 -1.801193
C 1.432381 -2.458778 -1.920914
C 2.378771 -2.405367 -0.919628
C 2.089569 -1.225576 -0.164033
C 2.670871 -0.712830 0.994361
C 2.226894 0.476456 1.584251
C 2.634962 1.115014 2.780462
C 1.739448 2.171366 2.983253
C 0.825572 2.195105 1.888792
C 3.689457 -1.491445 1.646322
C 3.436598 -3.422551 -0.674912
C 3.078057 -4.718659 -0.364533
C 4.051406 -5.684806 -0.141591
C 5.383269 -5.347723 -0.229510
C 5.744592 -4.067044 -0.561218
C 4.782320 -3.099711 -0.782516
C -0.568019 -0.945465 -2.592343
C -3.951775 -3.388131 -2.213843
C 3.789041 0.747072 3.630180
C 3.598042 0.205840 4.889303
C 4.688904 -0.145486 5.673927
C 5.972390 0.056289 5.207980
C 6.165898 0.597521 3.962895
C 5.084703 0.936978 3.170486
C 1.809930 3.088850 4.138315
C 3.336059 3.935118 5.749025
C 4.820779 4.168940 5.818181
C -0.209537 3.128018 1.500531
C -0.906289 3.951735 2.298206
C -1.913096 4.866844 1.793225
C -2.374463 4.990283 0.453141
C -4.060938 2.395693 2.044274
C -4.690534 3.160064 3.071415
C -5.716346 3.916127 2.477194
C -5.710806 3.634829 1.079149
C -4.673801 2.698355 0.832141
N 1.003359 -0.579896 -0.741579
N 1.158045 1.171986 1.042021
H -2.636183 5.892336 3.526574
N 4.478294 -2.130004 2.168190
H -4.248237 7.088744 1.966490
H -3.900921 6.219924 -0.375674
O 0.873095 3.511390 4.768199
O 3.084712 3.373708 4.431205
F 0.878950 1.766748 -1.288493
F -0.885242 0.843568 -0.209846
H -6.297185 4.006333 0.430487
Fe -3.635775 -2.723935 -4.125277
C -2.704663 5.764150 2.587569
C -3.614886 6.428821 1.708778
C -3.422234 5.951682 0.398390