279
Ni2 H140 C128 S1 N8
H -8.314858 0.024535 5.110014
H -9.527447 -3.164695 3.814680
H -7.913251 -3.217722 6.296868
H -7.466101 -3.988516 4.967601
H -6.458738 -2.967735 5.679032
N 1.063995 5.461755 -2.353576
N 3.115373 6.118919 -0.611716
C 2.064239 10.274008 -2.220026
C -0.474869 10.953897 -1.313487
C -0.086583 9.620632 -1.355716
H 7.082476 5.948473 -0.713246
C -1.921984 11.338347 -1.029359
H -4.828871 3.963726 -6.706140
H -1.544024 3.058470 -10.070557
H -0.084354 2.941052 -10.714375
H -0.665603 1.742250 -9.827293
H 5.504701 7.952158 0.699844
H 3.640737 9.346025 -0.272834
H -0.058805 8.251385 -3.911535
H -0.810976 6.098086 -4.928554
H -2.488867 -8.656836 -1.767543
C 0.875258 -3.274538 1.388809
C 2.215978 -3.325671 2.070916
C 2.416147 -4.401373 2.479983
C 1.069692 -5.227089 2.404809
C 0.671308 -6.520583 2.568294
C -0.399799 -7.141763 2.184014
C -0.565623 -8.590552 1.798103
C -1.528145 -8.651155 1.106432
C -2.142033 -7.473185 0.897370
C -3.409893 -7.310315 0.147957
C -4.084116 -6.041441 0.132370
C -5.488633 -5.704337 0.155140
C -5.665598 -4.372966 0.267717
C -4.431152 -3.833221 0.919117
C -4.361340 -2.636313 1.315234
C -3.041574 -1.920441 1.310578
C -2.820669 -0.405367 1.260734
C -1.456772 -0.259541 1.046598
C -0.869619 -1.647727 0.961004
C 0.531350 -1.977256 1.089126
C 2.841929 2.361536 0.577020
C 3.830801 1.800959 1.236861
C 4.907380 2.732729 1.327470
C 4.378732 3.908805 0.782022
H 9.883425 3.155056 3.698813
H 10.169567 3.662606 5.190232
C 0.072284 3.728890 -3.739720
C 0.343516 2.719472 -2.685440
C -0.035392 1.300985 -2.658855
C 0.299944 0.666548 -1.521305
C 1.042732 1.732781 -0.818407
C 1.816836 1.403252 0.271529
C 2.683693 -1.873094 1.774441
C 1.737541 -1.096619 1.211765
C 2.235391 0.240433 0.997164
C 3.576156 0.285885 1.550073
C 1.635180 -7.380387 3.509650
H 6.149552 4.615208 2.999002
C 2.990054 -7.547045 3.252622
C 3.792413 -8.217465 4.168941
C 3.239900 -8.721227 5.340146
C 1.885026 -8.554569 5.597174
C 1.080890 -7.884149 4.679953
C 5.319541 -8.384123 3.886005
C 5.908059 -6.829279 3.658740
C 6.134446 -8.808344 5.188708
C 5.455878 -9.249609 2.554316
H 7.668694 6.372693 5.247023
H 6.680354 4.251590 5.162529
H 2.067026 12.453820 -4.495126
C -4.044343 -8.350034 -0.487922
C -3.344961 -8.978789 -1.510142
C -3.895976 -10.079112 -2.153814
C -5.148148 -10.550678 -1.776169
C -5.847530 -9.921923 -0.753949
C -5.296515 -8.821601 -0.110277
C -3.257006 -10.779833 -3.239751
C -2.027834 -10.124564 -3.719717
H 2.932507 10.041065 -2.528392
C -4.107655 -10.848011 -4.616119
C -2.955745 -12.135824 -3.004847
C -7.282623 -10.418109 -0.189317
C -8.273454 -10.253345 -1.360358
C 8.661175 5.937110 0.577802
C -5.504580 -1.799235 1.719728
C -6.106134 -0.831481 0.925373
C -7.325868 -0.282267 1.302446
C -7.944048 -0.700806 2.473875
C -7.342495 -1.670453 3.269672
C -6.122761 -2.219668 2.892598
C -7.973568 0.740407 0.468505
C -7.070979 1.759294 -0.064656
C -8.630137 1.785808 1.308738
C -8.943442 0.145741 -0.347032
C 8.523890 4.757246 4.273724
H 4.549938 13.133709 -2.349856
H 1.318433 14.186685 -3.034527
H 2.003981 14.360919 -1.598017
H 2.808611 14.756732 -2.925011
H -9.618456 -0.289843 0.215309
H -1.052944 12.770091 0.273152
H -2.504003 12.307994 0.765164
H -3.441611 12.362915 -1.764176
H -2.011781 12.997353 -2.098413
H -2.511392 11.692495 -2.881417
C 8.570637 5.999607 5.156713
C 7.553855 3.816007 5.068940
Ni -1.602975 -4.586023 1.200338
H -1.243616 11.347816 0.980794
C 9.749993 6.454129 -0.362924
C 9.808138 5.469331 -1.607119
H -0.655014 5.427666 -8.782173
H 0.717647 5.325399 -7.967799
H 0.719355 5.177679 -9.561148
C 11.106735 6.488218 0.234599
C 9.304908 7.846102 -0.850398
C -0.602693 3.372848 -4.865390
C -1.906369 2.889918 -4.809360
C -2.581326 2.577434 -5.983177
C -1.956158 2.747880 -7.212689
C -0.654258 3.230810 -7.267480
C 0.022475 3.543294 -6.094902
C -4.142478 2.132381 -6.037655
C -4.771125 2.119124 -4.721887
C -4.327825 0.706318 -6.495767
C -4.836401 3.043319 -7.041290
C -0.634963 2.715685 -9.936201
C 0.013525 3.391786 -8.592314
C 1.364640 2.778181 -8.534486
H -2.363197 9.594119 0.008037
H -3.668026 10.453923 -0.335782
H -2.954545 9.594119 -1.478982
C 1.256057 -9.262866 6.868114
S 4.154453 -1.051167 2.219783
C 2.195166 -9.910560 7.791692
C 0.315276 -8.391698 7.430969
C 0.340993 -10.376445 6.295689
N 0.176834 -4.408949 1.640498
N -1.360196 -6.446723 1.365600
N -3.477996 -4.821806 0.786021
N -1.860980 -2.624950 1.108941
N 3.048518 3.641773 0.212613
C -7.230025 -11.878261 0.411752
C -7.839933 -9.777991 1.138468
N 1.043297 2.952415 -1.506960
C -7.962403 -1.988619 4.603629
C -7.844614 -0.727320 5.523310
C -9.470256 -2.378750 4.397384
C -7.398230 -3.147650 5.466806
C 3.700674 8.397210 -0.267242
H -9.875239 -2.587073 5.266606
H -9.947604 -1.630683 3.985501
H 0.142224 12.859102 -1.696637
C 2.675570 7.414306 -0.843081
H -0.688901 8.940743 -1.075758
H 9.290990 8.469176 -0.094178
H 11.103456 7.075309 1.017203
H 3.248856 -4.725220 2.805215
H -0.006575 -9.313999 2.059329
H -1.839292 -9.465507 0.733156
H -6.193928 -6.338774 0.095443
H -6.425418 -3.874885 -0.009648
H -3.472077 0.280204 1.353991
H -0.980471 0.560492 0.970598
H 5.779241 2.588797 1.674806
H 11.367361 5.582961 0.503936
H 9.931922 8.169949 -1.531941
H -0.479546 0.871083 -3.379648
H 0.111295 -0.221664 -1.244987
H 3.368463 -7.202366 2.452363
H 3.788415 -9.181431 5.965184
H 0.155742 -7.768624 4.858218
H 6.868760 -6.867156 3.475832
H 5.446539 -6.412634 2.901247
H 5.750257 -6.299003 4.468136
H 7.082692 -8.899248 4.964894
H 6.026440 -8.120879 5.880178
H 5.793093 -9.662466 5.524169
H 6.404108 -9.374602 2.343603
H 5.031052 -10.122670 2.688301
H 5.015692 -8.781830 1.815845
H 9.941463 5.768558 2.153733
H 3.583812 12.961370 -4.403724
C 4.917347 5.077305 0.680087
C 4.315864 6.198460 -0.034029
H 10.665424 4.531879 3.941034
C 4.721421 7.643461 0.256099
H 9.160520 6.668133 4.748459
C 1.549897 7.838527 -1.644250
C 0.874700 7.009024 -2.426652
C 0.132577 7.374536 -3.598392
H 8.915035 5.759089 6.041753
C 0.335718 5.050792 -3.473094
H 8.923758 5.421985 -2.027174
H 10.461794 5.802647 -2.256630
H 10.072321 4.575437 -1.306081
H 11.744413 6.829109 -0.426663
H 8.406313 7.783606 -1.238305
H -5.524971 -11.302534 -2.217579
H -5.774011 -8.391698 0.589436
H -2.210304 -9.175749 -3.890401
H -1.328198 -10.204105 -3.037873
H -1.729696 -10.554466 -4.547033
H -4.375384 -9.942755 -4.880502
H -3.557335 -11.243824 -5.321891
H -4.907029 -11.397226 -4.478042
H -2.526174 -12.518380 -3.799242
H -2.350224 -12.207790 -2.239576
H -3.783505 -12.626329 -2.814553
H -8.251715 -9.327256 -1.679719
H -8.021567 -10.855587 -2.090671
H -9.179223 -10.471137 -1.055488
H -6.958618 -12.510805 -0.287705
C -0.242678 6.173840 -4.170488
H -5.683357 -0.545511 0.123852
H -8.778509 -0.325826 2.731964
H -5.711077 -2.880618 3.436030
H -6.463509 2.060415 0.642370
H -6.549063 1.380526 -0.802133
H -7.594493 2.520619 -0.392331
H -7.962231 2.211923 1.876370
H -9.034711 2.460016 0.713858
H -9.326450 1.372951 1.851510
H -9.371096 0.833206 -0.897359
H -8.519330 -0.520891 -0.925755
H 3.743532 12.737896 -1.025906
C 9.954824 3.944788 4.275150
C 9.041062 5.637883 1.881063
H 7.446914 2.971353 4.582733
H 7.926696 3.639879 5.957959
C 6.407341 5.251539 1.078048
C 6.789004 4.952312 2.382212
C 8.104976 5.145484 2.782197
H 4.199390 11.601591 -2.055299
C 7.343427 5.743938 0.176914
Ni 2.074906 4.558582 -1.070045
C 1.182971 9.279741 -1.808265
H 2.802226 -10.491969 7.288212
C 1.675952 11.607273 -2.177797
C 0.406399 11.948164 -1.725248
H 2.717575 -9.224989 8.261236
H 1.697688 -10.444623 8.444342
C 2.731278 12.660249 -2.631415
C 2.919372 12.351552 -4.018125
C 3.881946 12.523892 -1.972487
C 2.161922 14.131764 -2.538122
H -0.252815 -8.022399 6.723863
C -1.655302 12.004979 0.382427
C -2.516502 12.162168 -2.018903
C -2.806900 10.137651 -0.676409
H -0.240782 -8.880310 8.074899
H 0.780880 -7.660675 7.890555
H 0.891179 -11.062016 5.866158
H -0.177734 -10.779833 7.022194
H -0.271484 -9.986313 5.635807
H -2.332620 2.772500 -3.968777
H -2.419745 2.535770 -8.014976
H 0.912314 3.872822 -6.133197
H -4.708557 3.011124 -4.322131
H -5.712426 1.867243 -4.811710
H -4.311488 1.471430 -4.147035
H -3.937196 0.594582 -7.387692
H -3.884151 0.100289 -5.866535
H -5.285090 0.496102 -6.531210
H 3.233263 11.427358 -4.109867
H -4.364052 3.003549 -7.899349
H -5.763517 2.747880 -7.163541
H -6.581864 -11.906669 1.146264
H -8.116275 -12.126355 0.747479
C 0.218485 4.988295 -8.740111
H -7.186489 -9.901090 1.857830
H -7.995762 -8.821601 0.999118
H -8.681875 -10.215468 1.383960
H 1.808643 2.882343 -9.403060
H 1.895817 3.223234 -7.843082
H 1.282510 1.825579 -8.322006
H -8.244264 -0.922386 6.397998
H -6.897995 -0.496271 5.642407