85
Zn1 H44 C36 N4
Zn -0.121186 -0.225186 0.222083
H 4.195023 0.150551 4.117352
H 5.335439 -0.702234 3.459798
C -2.055238 4.309966 3.058475
C 0.065016 2.860856 3.256484
H 5.426324 -2.633299 2.046044
H 4.740799 -3.280280 0.796611
H -4.596473 -0.970828 -3.365191
H -5.659406 0.049256 -2.830044
H -5.899783 1.900552 -1.317952
H -5.330734 2.351762 0.071340
H 4.690127 1.929289 2.627902
H 5.858600 1.079483 2.019558
H -2.184808 5.130392 1.172800
H -2.527245 6.166122 2.298670
H -1.035123 5.771289 2.024301
C 0.847373 3.660743 4.253770
H -0.730684 -4.838994 -4.110125
H -1.999554 -3.967506 -3.812293
H 5.942231 1.578198 3.503438
H 2.429827 -4.897332 -2.027533
H 1.230920 -5.574697 -2.773211
H -3.558256 0.765345 -4.575161
H -5.049844 0.593656 -5.026068
H -4.652086 1.764452 -4.062410
H -4.528827 3.497928 -2.386679
H -5.493843 4.198151 -1.368823
H -3.991485 3.961367 -0.988784
H 0.101398 -3.099263 -5.489886
H -1.262091 -3.653367 -6.029743
H -1.223370 -2.298576 -5.241931
H 3.061860 -3.807842 -3.975610
H 2.976071 -5.347116 -4.259951
H 1.820765 -4.397551 -4.730258
H 1.274810 5.265520 3.044634
H 2.232779 5.177331 4.282439
H 2.431945 4.208075 3.066501
H 5.774392 -1.733339 -0.594351
H 2.982826 -3.158415 -0.631344
H 2.351156 1.514734 3.590396
H -2.589198 -1.888959 -3.185701
H -3.407848 2.702509 1.079233
C -1.440709 2.111294 1.765524
C -2.585745 -0.386355 -1.625501
H 6.427585 -1.035468 0.648195
C 3.688703 -0.545329 2.270987
H 6.860783 -2.487761 0.247220
C -3.845330 0.266473 -1.936307
C -2.842294 1.177517 -0.133674
C 4.663370 -0.024822 3.286212
C 3.857369 -1.547932 1.364604
C 2.362805 -0.004755 2.042363
C -0.804712 -2.131465 -2.113808
C 0.522942 1.669961 2.581386
C 1.129176 -2.640213 -1.286044
C -4.004574 1.240699 -0.995450
C 0.870915 -3.625570 -2.320710
C 2.627093 -1.601864 0.597910
C -0.339128 -3.288182 -2.852486
C 5.043110 -2.440320 1.176164
C -4.733533 -0.047085 -3.102999
C -5.111346 2.240951 -0.867045
C 5.352946 1.260610 2.815301
C -1.939859 5.450848 2.043902
C -1.049989 -3.928938 -4.006445
C 1.763442 -4.765669 -2.720025
C -4.474576 0.852044 -4.302276
C -4.747642 3.600697 -1.457701
C -0.838369 -3.175457 -5.312373
C 2.470748 -4.560758 -4.042474
C 1.783795 4.671499 3.601565
C 2.319944 -2.531408 -0.454428
C 1.842699 1.156039 2.898708
C -2.091246 -1.557809 -2.473373
C -2.720909 2.099849 0.906593
N -0.406651 1.209971 1.689055
N -1.993942 0.182126 -0.532794
N 1.734905 -0.665265 1.018930
N 0.104702 -1.755038 -1.159082
C 6.124673 -1.872936 0.288521
H -2.976133 4.006645 3.086669
H -1.828546 4.648295 3.938777
H 0.229927 4.131536 4.835207
H 1.369554 3.055967 4.803829
C -1.170468 3.144156 2.744818