82
H26 Rh2 C46 N4 O4
C 3.420004 1.965452 -2.936321
C 3.462268 3.486889 -4.802123
C 4.808592 3.381778 -4.871764
C 5.486164 2.574739 -3.999893
C 4.779891 1.849652 -3.022372
H -1.727788 -4.832501 -0.352542
H -0.341766 -6.576915 0.158289
H 1.918483 -6.368528 -0.073332
H 2.808717 -4.384728 -0.847930
Rh 1.906798 -0.427514 0.980560
Rh -1.303422 -0.760306 1.292160
C 2.137249 2.018898 -0.813127
C 2.677139 1.245709 -1.844947
C 2.532241 -0.142112 -1.968108
C 1.722741 -2.155253 -1.623154
C 2.255817 -2.141001 -2.911910
C 2.769151 -0.892140 -3.139454
C 1.085671 -3.348886 -1.008191
C -0.293717 -3.486065 -0.853002
C -1.281170 -2.481276 -1.302793
C -3.081379 1.292029 -0.173577
C -3.413588 0.356720 -1.153874
C -2.764639 -0.851165 -1.405134
C -2.907580 -1.629699 -2.587450
C -1.985047 -2.634488 -2.518239
C -4.556905 0.684524 -2.073486
C -4.519483 1.762356 -2.922118
C -5.555931 2.015335 -3.795413
C -6.648433 1.208297 -3.808699
C -6.732582 0.150061 -2.959785
C -5.672626 -0.143893 -2.090737
C -3.632341 2.569395 0.001758
C -2.922420 3.192934 0.984874
C -1.938425 2.305727 1.423604
C -0.975988 2.587210 2.522203
C 0.402760 2.633530 2.353281
C 1.038374 2.592555 1.008351
C 1.271430 3.768372 0.290488
C 1.983456 3.419190 -0.835884
C 1.201358 2.989838 3.432477
C 0.649428 3.271322 4.660132
C -0.713544 3.251725 4.820564
C -1.519163 2.923921 3.750535
C -1.039866 -0.279290 3.071976
C -0.813096 -2.449208 1.909926
C 2.759615 2.781398 -3.832999
C 2.193882 0.025353 2.759727
C 2.511360 -2.105370 1.488097
C -0.807365 -4.724236 -0.431696
C 0.019980 -5.773564 -0.138028
C 1.358378 -5.654201 -0.277774
C 1.888636 -4.455224 -0.728074
H 3.006596 4.032717 -5.402288
H 5.277041 3.861867 -5.517679
H 6.412521 2.506168 -4.053931
H 5.237709 1.291816 -2.433875
N 1.539956 1.524877 0.355665
N 1.881192 -0.959483 -1.027473
N -1.730507 -1.400058 -0.626886
N -2.015374 1.122783 0.738466
O -0.826941 -0.138548 4.177869
O -0.533034 -3.420148 2.416905
O 2.446827 0.164314 3.850807
O 2.951189 -3.072747 1.872266
H 2.261736 -2.852014 -3.510596
H 3.191162 -0.595728 -3.913798
H -3.515331 -1.483060 -3.276210
H -1.844648 -3.297827 -3.155142
H -3.783016 2.329688 -2.909717
H -5.508352 2.741652 -4.375892
H -7.342089 1.378595 -4.404839
H -7.495730 -0.380482 -2.955259
H -5.715402 -0.884943 -1.532215
H -4.350675 2.927395 -0.467843
H -3.068084 4.053722 1.305380
H 0.997219 4.623922 0.528212
H 2.303232 3.999705 -1.488727
H 2.124480 3.036533 3.323221
H 1.200070 3.477393 5.381203
H -1.090760 3.456495 5.645346
H -2.443935 2.931012 3.855650
H 1.833326 2.858681 -3.788263