78
Ni1 H28 C44 S1 N3 Cl1
C -3.543400 5.324322 3.376269
N -0.137696 0.667714 1.941345
Cl 2.249148 0.446814 -0.234280
N -1.069644 1.727409 -0.616317
H 2.773032 -7.135492 -4.166491
H -2.970509 3.119798 -7.624296
H 3.541777 -5.016103 -4.693228
H -1.213815 4.163810 -6.472407
H 1.167774 -7.409937 -2.498272
C 2.428269 -6.378247 -3.708589
C 2.873778 -5.123640 -4.025976
C -2.691533 2.787103 -6.779870
Ni 0.005352 0.155902 -0.056456
H -3.768346 3.554430 2.394970
H -0.819997 2.669484 4.358184
H 0.430729 0.653152 5.109984
H 3.109595 -0.014478 4.388641
H 4.217891 -0.682108 6.324712
H 3.521124 -2.546096 7.492897
H 1.747156 -3.827587 6.697974
H 0.707705 -3.263014 4.678753
H 2.669663 -3.447844 2.441038
H 2.519847 -4.329430 0.169930
H 0.324762 -5.558272 -1.369703
H 2.653314 -3.128592 -3.617864
H 0.066970 -2.811579 -4.358422
H -0.941551 -0.677628 -5.068014
H -3.326399 0.432475 -4.622144
H -4.058733 1.290537 -6.674020
H -0.504835 3.307989 -4.416563
H -2.568911 3.760544 -2.603309
C -3.130361 4.210858 2.653059
C -1.797644 4.047311 2.304335
C -1.310199 2.827430 1.592522
C -0.690828 1.842788 2.393395
C -0.517483 1.955926 3.808545
C 0.158788 0.850304 4.220324
C 0.385228 0.032569 3.052189
H 0.028537 4.944579 2.430837
C 1.079540 -1.187312 3.077718
H -0.657977 6.791763 3.690756
C 1.799039 -1.570415 4.325913
H -2.900447 7.011320 4.295753
C 2.839217 -0.806449 4.839328
H -4.461476 5.436340 3.595861
C 3.485234 -1.194033 6.002304
C 3.081641 -2.300775 6.686816
C 2.036840 -3.064741 6.212330
C 1.406708 -2.717484 5.021359
C 1.151375 -2.066657 2.005230
C 2.067578 -3.119630 1.783368
C 1.987810 -3.614752 0.497993
C 1.019763 -2.934800 -0.266067
C 0.809421 -2.988569 -1.647294
C 1.393253 -4.153561 -2.377370
C 0.969819 -5.436172 -2.056094
C 1.475964 -6.539554 -2.720694
C 2.354129 -3.996735 -3.377740
C 0.120034 -2.008407 -2.380000
C -0.130012 -2.074498 -3.793209
C -0.692126 -0.907266 -4.180758
C -0.845805 -0.078329 -3.024106
C -1.371713 1.219965 -3.019462
C -1.839102 1.784538 -4.326998
C -2.894544 1.189720 -4.998630
C -3.327946 1.696044 -6.222659
H -2.559957 4.554755 -0.251565
C -1.641025 3.400965 -6.100646
C -1.222864 2.891281 -4.878382
C -1.489783 2.045541 -1.883386
C -2.182908 3.313590 -1.857558
C -2.178462 3.745981 -0.576214
C -1.490184 2.754618 0.207308
S 0.022976 -1.962816 0.730372
N -0.302615 -0.751560 -1.921923
C -0.883186 5.029713 2.684075
C -1.289943 6.133095 3.425059
C -2.621147 6.266397 3.776622