77
Ni1 H28 C44 S1 N3
Ni -0.010841 -0.165849 0.067907
C 1.553489 -0.120102 3.138673
C 2.224112 -0.136154 4.458519
C 1.787587 -1.014182 5.454644
H -1.342449 -1.824793 -5.252588
C 2.426539 -1.028628 6.683638
H -2.652024 -1.839239 -7.193262
C 3.485491 -0.174678 6.923114
H -4.398124 -0.301486 -7.444803
C 3.916508 0.701745 5.934074
H -4.820879 1.263554 -5.772907
H -3.540222 1.260344 -3.830086
C 3.284441 0.722612 4.706734
H -4.238387 -1.018997 -2.621922
C 2.316375 -0.245305 1.975236
C 3.731983 -0.481265 1.992549
H -5.031568 -0.778222 -0.296304
C 4.171262 -0.423479 0.724942
H -2.704352 0.709771 4.272343
C 3.047589 -0.155416 -0.118728
H -0.379891 0.589383 5.076362
C 3.164638 0.042020 -1.500978
H 1.056373 -1.596859 5.288676
C 4.512770 0.324530 -2.054926
C 5.333493 1.273185 -1.394166
C 6.567330 1.624718 -1.908720
C 7.006609 1.054882 -3.044308
C 6.258871 0.125489 -3.720904
C 4.957558 -0.282224 -3.219094
C 2.058866 0.033994 -2.332815
C 1.937686 0.337371 -3.713239
H 0.359586 0.375895 -5.036817
H -4.988879 1.704976 0.665898
H -7.069603 2.255549 1.566179
H -7.798062 1.181691 3.516496
H -6.528422 -0.463609 4.487335
N 1.870210 -0.108866 0.654442
H -4.425665 -1.046285 3.562138
C -2.057138 -1.206802 -5.351164
C -2.831041 -1.208407 -6.505016
C -3.866583 -0.291855 -6.656044
C -4.122714 0.629512 -5.664679
C -3.361205 0.624697 -4.514527
C -2.332548 -0.299881 -4.347652
C -1.580679 -0.325564 -3.069584
C -2.309139 -0.471313 -1.885133
C -3.710976 -0.776617 -1.871745
C -4.140616 -0.654624 -0.602508
C -3.005926 -0.303092 0.198267
C -3.103697 -0.004530 1.551630
C -1.974515 0.135120 2.365767
C -1.948351 0.477021 3.746616
C -0.669071 0.414419 4.187583
C 0.170930 0.045230 3.095400
C 0.647389 0.218589 -4.145553
C -0.200874 -0.173073 -3.087922
C -4.484879 0.294032 2.054115
C -5.293207 1.265160 1.452222
C -6.527045 1.595825 1.980092
C -6.962193 0.945731 3.130862
C -6.210323 -0.017371 3.710406
C -4.947568 -0.360878 3.161366
S 0.720924 -0.719633 -1.766398
N -1.859118 -0.243379 -0.584726
N -0.604350 0.013127 1.933761
H 2.134604 -1.627357 7.362567
H 3.922016 -0.185914 7.767845
H 4.646344 1.286027 6.102908
H 3.574999 1.326156 4.032763
H 4.263524 -0.648203 2.761905
H 5.069099 -0.540657 0.438084
H 5.031919 1.672873 -0.586941
H 7.104380 2.268391 -1.460519
H 7.856249 1.303684 -3.388207
H 6.594871 -0.254936 -4.524616
H 4.434279 -0.935529 -3.669315
H 2.666146 0.590988 -4.268790