78
Ni1 H28 C44 S1 N3 Cl1
Ni -0.155077 0.009173 -0.010501
H -2.854006 -2.288639 -3.683903
H -4.306514 -2.783031 -5.409236
H -5.544822 -1.034696 -6.368632
H -5.372448 1.108811 -5.546956
H -3.947823 1.534775 -3.768868
H -1.187296 0.523752 -4.915953
H -1.548522 -0.254617 4.864607
H -4.213990 -2.206525 2.832153
H -5.805919 -2.454577 4.527019
H -6.267274 -0.697688 5.905457
H -5.132898 1.273038 5.684532
H -3.508015 1.514247 4.004623
H -5.037838 -0.562543 0.996951
H -4.904755 -0.514643 -1.444967
C 0.650520 0.918923 -4.105588
C 1.063712 0.816281 -2.742726
C 2.380602 0.896684 -2.349713
C 3.445268 0.888131 -3.377702
C 3.432594 -0.049333 -4.364296
C 4.463038 -0.003144 -5.283961
C 5.407295 0.850495 -5.233010
C 5.417435 1.854676 -4.274769
C 4.438956 1.817041 -3.333210
C 2.776049 0.884709 -1.066159
C 4.010555 0.503223 -0.508000
C 3.956054 0.330443 0.837793
C 2.696200 0.576783 1.384998
C 2.210763 0.248329 2.634851
C 3.196846 0.046466 3.690369
C 3.963659 1.060912 4.105146
C 4.890172 0.881288 5.098295
C 5.019453 -0.372655 5.654010
C 4.261512 -1.397364 5.227426
C 3.342604 -1.193791 4.260168
C 0.859651 0.133712 2.925860
C -3.380001 -1.595806 -4.066596
C 0.372946 -0.063018 4.230197
C -4.222862 -1.893467 -5.083164
C -4.960523 -0.855072 -5.640678
C -4.861662 0.405713 -5.163757
C -4.013731 0.655476 -4.117729
C -3.267197 -0.336730 -3.574223
C -2.339417 -0.064729 -2.477049
C -1.054213 0.325311 -2.821089
C -0.643556 0.580205 -4.137759
C -0.947747 -0.155396 4.136029
C -1.310240 -0.078415 2.772767
C -2.581502 -0.240931 2.304762
C -3.690529 -0.360680 3.326015
C -4.380027 -1.491453 3.434603
S 1.695413 1.263972 0.194483
C -5.339494 -1.631730 4.424376
C -5.603125 -0.608732 5.232105
C -4.938977 0.547702 5.100877
C -3.968103 0.689690 4.116916
C -2.936391 -0.283699 0.978673
C -4.248211 -0.451347 0.478351
Cl 0.841273 -2.001755 -0.359275
C -4.175966 -0.422265 -0.842347
C -2.819784 -0.228956 -1.200487
H 1.189190 1.175528 -4.844256
H 2.748165 -0.706242 -4.418606
H 4.466840 -0.637814 -5.989262
H 6.118340 0.799174 -5.861368
H 6.079049 2.537246 -4.278867
H 4.449096 2.451711 -2.625391
H 4.801450 0.378342 -1.019441
H 4.705123 0.066995 1.359566
H 3.864797 1.916262 3.702526
H 5.430110 1.603203 5.398197
H 5.651915 -0.514643 6.349634
H 4.373048 -2.261268 5.605317
H 2.795061 -1.913996 3.970150
H 0.890070 -0.121182 5.024824
N -0.025036 0.492959 -1.969635
N -0.178399 0.104630 2.032826
N -2.069448 -0.143421 -0.065036