15
C10 N5
C 1.648902 0.176165 2.049194
C -0.670901 0.115585 1.001811
C -0.101626 -0.264797 -2.608062
C -1.464625 0.297324 2.159668
N -3.617210 0.056415 -1.094069
C -1.151136 0.001471 -0.324275
N -0.132519 -0.359189 -3.741988
C -2.522788 0.025421 -0.741401
N 3.504310 -0.352145 -1.224563
C -0.062024 -0.147865 -1.178710
N 2.402427 0.301550 2.892880
N -2.103523 0.432571 3.105262
C 1.102569 -0.112644 -0.382680
C 2.426977 -0.240847 -0.857643
C 0.732279 0.057824 0.954959