27
B1 H9 C11 N2 O2 F2
H 4.300385 -3.260881 1.527047
H 3.508933 -1.103720 0.785229
B 1.096179 1.732863 -0.201642
C -4.564457 0.126518 -0.714997
C -2.441652 0.701599 -0.574063
C -1.031119 0.564502 -0.333630
C -0.425448 -0.612353 0.054090
C 0.941812 -0.653603 0.222517
C 1.655681 -1.849870 0.593711
C 1.199056 -3.135917 0.846627
C 2.314641 -3.880853 1.274689
H -5.359492 -0.391541 -0.690346
C -4.506193 1.458668 -1.030913
C -3.142690 1.832350 -0.946742
H -0.948559 -1.390047 0.205087
H 0.307787 -3.452575 0.751967
H 2.316691 -4.799285 1.516421
N -3.328665 -0.340584 -0.444347
H -3.125363 -1.168022 -0.224434
N 2.995129 -1.814685 0.867854
H -5.236669 2.021617 -1.261482
H -2.779792 2.694972 -1.115482
O 1.691587 0.399499 0.061111
O -0.330869 1.652789 -0.544618
F 1.774300 2.309158 -1.240433
F 1.238305 2.500852 0.947235
C 3.413523 -3.029150 1.278800