45
B1 C24 F20
F 1.175293 -1.641496 -2.024567
C 3.805811 -2.414761 0.269900
C -1.142543 -1.250369 -0.170432
C -1.444693 -2.064762 0.921644
C -2.365554 -3.090244 0.880692
C -3.020460 -3.358531 -0.285367
C -2.744676 -2.617678 -1.403425
C -1.812720 -1.594920 -1.316579
F 2.413153 2.774204 -3.430913
C 1.393807 -0.913989 0.213393
C 2.189937 -1.022938 1.338003
F 0.093545 3.908771 -4.243226
C 3.384778 -1.720211 1.375671
F -2.257506 3.164786 -3.029550
C 3.028623 -2.391609 -0.859788
C 1.863878 -1.663013 -0.861412
F 2.446896 0.926022 -1.568269
F -2.250883 1.361000 -1.101646
B -0.006790 -0.073721 0.025988
F 1.801147 1.874150 1.099463
F 1.366124 3.684609 2.974269
F -1.075119 3.854297 4.196375
F -3.053920 2.149927 3.442433
F -2.649593 0.333203 1.582774
C 1.251584 2.404867 -2.864114
C 0.085959 2.987744 -3.268578
C -1.085495 2.602337 -2.661304
C 0.085219 0.992617 -1.241483
C 1.230849 1.435222 -1.880528
C -1.056288 1.650396 -1.674486
C -0.361122 0.940866 1.267247
C 0.579665 1.865570 1.681239
C 0.384434 2.822959 2.653402
C -0.845930 2.922375 3.261588
C -1.841181 2.056231 2.870260
C -1.596103 1.107013 1.899731
F 4.132965 -1.717488 2.491460
F 4.956436 -3.109310 0.283621
F 3.417497 -3.055653 -1.967360
F -0.843963 -1.841826 2.103193
F -2.641258 -3.807809 1.984085
F -3.915857 -4.359635 -0.354223
F -3.362209 -2.886782 -2.557073
F -1.583183 -0.945857 -2.486060
F 1.854670 -0.424128 2.498584