78
Ni1 H28 C44 S1 N3 Cl1
Ni 0.135590 0.000294 0.041273
H -5.550782 0.109495 1.836920
C 5.090207 0.762385 -2.779832
H -7.157580 0.151228 3.546748
C 2.695319 -0.881896 -1.256572
H -6.588289 -0.544322 5.715309
C 3.764041 -1.839668 -1.084491
C 3.363902 -2.724639 -0.130588
H -4.413686 -1.300153 6.169653
H 6.887413 -0.138585 -5.373326
C 2.026588 -2.336754 0.276566
H -2.783105 -1.297835 4.481775
H 7.027135 1.067035 -3.369382
C 1.192866 -3.071719 1.142015
H -4.004926 2.161367 2.056410
H -3.203756 3.809821 0.471693
C 1.728862 -4.369847 1.674059
C 1.899352 -4.552545 3.056407
H 0.320498 5.235698 -1.604683
C 2.408147 -5.760947 3.552454
H -0.230956 7.417407 -2.258763
C 2.760424 -6.788738 2.681298
H -2.439747 7.966891 -2.820657
C 2.604946 -6.613691 1.308827
H -4.119379 6.334667 -2.704328
C 2.086787 -5.412245 0.807073
H -3.566438 4.139048 -2.102925
C -0.134192 -2.710033 1.492760
H 0.436437 3.772725 -3.632770
C -1.041788 -3.579470 2.220369
H 2.423754 2.323662 -4.014683
C -2.191221 -2.888326 2.399034
H 2.972236 -0.924556 -4.622670
C -2.010177 -1.576286 1.794778
H 4.858477 -1.126266 -6.003262
H 5.155757 1.240923 -1.960257
H 4.592412 -1.849638 -1.549810
S -2.040797 0.628607 -0.397268
H 3.865562 -3.458677 0.206110
N 0.569173 1.274078 -1.571759
H 1.668663 -3.855140 3.658687
N 1.672082 -1.177968 -0.386952
H 2.512938 -5.879191 4.488360
N -0.754764 -1.512759 1.195351
H 3.106012 -7.606473 3.022166
Cl 0.543309 1.510333 1.714445
H 2.850351 -7.309705 0.710937
H 1.976348 -5.301884 -0.129710
H -0.862676 -4.464906 2.515145
H -2.973364 -3.201323 2.837795
C -5.311620 -0.162697 2.715539
C -6.273618 -0.145076 3.734411
C -5.936205 -0.561015 5.023257
C -4.637686 -1.002458 5.296961
C -3.666473 -1.007326 4.287087
C -3.994224 -0.581882 2.981780
C -2.961324 -0.519978 1.903645
C -2.914652 0.644373 1.109311
C -3.411555 1.952239 1.345263
C -2.949582 2.894245 0.440086
C -2.064728 2.374438 -0.535986
C -1.227736 3.028486 -1.460039
C -1.558906 4.444163 -1.815832
C -0.574166 5.445986 -1.845024
C 6.124444 -0.056741 -4.814285
C -0.905782 6.750606 -2.225400
C 6.208723 0.653879 -3.618284
C -2.223624 7.080529 -2.556611
C -3.219066 6.110469 -2.498885
C -2.885815 4.801675 -2.135190
C -0.063885 2.428459 -2.015349
C 0.671437 2.996259 -3.138698
C 1.757401 2.205419 -3.348531
C 1.701512 1.141691 -2.356875
C 2.699779 0.162357 -2.206963
C 3.877602 0.167689 -3.147917
C 3.794364 -0.529484 -4.360819
C 4.918231 -0.645409 -5.186321