77
Cu1 H18 C44 N4 F10
H 3.350067 -2.723422 -3.446289
H 4.525038 -3.215870 -5.396452
H 3.982313 -2.132284 -7.382902
H 2.254826 -0.571201 -7.430007
H 1.141401 0.002991 -5.454233
H 4.200522 -0.133579 -2.931821
C 0.140297 -1.180382 -2.797395
C 1.493752 -0.889299 -2.961241
C 2.155792 -1.280865 -4.241879
C 3.144027 -2.259682 -4.248655
C 3.832084 -2.566615 -5.410072
C 3.507149 -1.926930 -6.585486
C 2.494576 -0.988885 -6.610729
C 1.826521 -0.655336 -5.437573
C 2.272730 -0.259582 -1.995254
C 3.674163 0.042965 -2.160995
N 1.845824 0.165080 -0.755773
Cu -0.000000 -0.000000 -0.000000
H -2.656274 -2.368539 -3.694331
H 2.656274 2.368539 3.694331
H -0.362283 -2.206051 -4.609528
H 0.362283 2.206051 4.609528
H -4.979640 -0.917111 0.827893
H 4.979640 0.917111 -0.827893
C -2.956871 -0.708169 0.150830
C 2.956871 0.708169 -0.150830
C -2.984287 -1.259234 -1.127240
C 2.984287 1.259234 1.127240
C -1.884430 -1.344266 -1.973691
C 1.884430 1.344266 1.973691
C -1.905412 -1.967802 -3.271714
C 1.905412 1.967802 3.271714
C -0.659522 -1.874595 -3.769736
C 0.659522 1.874595 3.769736
C -4.097712 -0.622140 1.020723
C 4.097712 0.622140 -1.020723
C -4.287106 -1.805613 -1.631364
C 4.287106 1.805613 1.631364
C -4.956840 -1.224643 -2.697340
C 4.956840 1.224643 2.697340
C -6.128314 -1.749489 -3.212774
C 6.128314 1.749489 3.212774
C -6.666423 -2.878932 -2.645825
C 6.666423 2.878932 2.645825
C -6.051101 -3.470070 -1.567725
C 6.051101 3.470070 1.567725
C -4.872913 -2.934158 -1.072355
C 4.872913 2.934158 1.072355
N -0.621476 -0.869561 -1.687446
N 0.621476 0.869561 1.687446
F -4.473283 -0.112645 -3.266385
F 4.473283 0.112645 3.266385
F -6.576621 -4.574690 -1.017674
F 6.576621 4.574690 1.017674
F -4.292981 -3.539451 -0.030428
F 4.292981 3.539451 0.030428
F -7.794535 -3.398994 -3.149598
F 7.794535 3.398994 3.149598
F -6.738459 -1.170712 -4.258871
F 6.738459 1.170712 4.258871
H -3.350067 2.723422 3.446289
H -4.525038 3.215870 5.396452
H -3.982313 2.132284 7.382902
H -2.254826 0.571201 7.430007
H -1.141401 -0.002991 5.454233
H -4.200522 0.133579 2.931821
C -0.140297 1.180382 2.797395
C -1.493752 0.889299 2.961241
C -2.155792 1.280865 4.241879
C -3.144027 2.259682 4.248655
C -3.832084 2.566615 5.410072
C -3.507149 1.926930 6.585486
C -2.494576 0.988885 6.610729
C -1.826521 0.655336 5.437573
C -2.272730 0.259582 1.995254
C -3.674163 -0.042965 2.160995
N -1.845824 -0.165080 0.755773