173
Zn1 H60 C108 N4
H 1.743975 -9.032260 3.363234
H -3.454238 9.688498 4.760725
H -1.743975 9.032260 3.363234
Zn 0.000000 0.000000 0.000000
H 4.094745 -1.519236 -0.177418
H -4.094745 1.519236 -0.177418
H 1.519236 4.094745 0.177418
H -1.519236 -4.094745 0.177418
H -5.984800 -0.238223 0.443546
H 0.238223 -5.984800 -0.443546
H -6.733180 -0.334861 2.893976
C -6.264375 -1.867806 4.218185
H 0.334861 -6.733180 -2.893976
H -0.238223 5.984800 -0.443546
C -6.796107 -1.254718 5.412544
H 0.411272 -7.229854 -5.361119
H -0.334861 6.733180 -2.893976
C -6.674748 -1.887808 6.617189
H 1.483277 -7.038825 -7.396287
H -0.411272 7.229854 -5.361119
C -6.023005 -3.128367 6.726468
H 3.532897 -5.919625 -7.580133
H -1.483277 7.038825 -7.396287
H 5.984800 0.238223 0.443546
C 5.533074 3.761457 5.604105
C -5.533074 -3.761457 5.604105
H -4.613892 5.121802 -5.683814
H 4.613892 -5.121802 -5.683814
H 4.681313 4.584676 3.156246
H -3.532897 5.919625 -7.580133
H -4.681313 -4.584676 3.156246
H -4.584676 4.681313 -3.156246
C 6.264375 1.867806 4.218185
C -5.640275 -3.128367 4.294038
H 4.584676 -4.681313 -3.156246
H 6.733180 0.334861 2.893976
H 4.085755 4.341957 0.653105
H -4.085755 -4.341957 0.653105
H -4.341957 4.085755 -0.653105
C 6.796107 1.254718 5.412544
H 4.341957 -4.085755 -0.653105
H -5.625217 -5.279119 -1.159647
C 6.674748 1.887808 6.617189
H 5.279119 -5.625217 1.159647
H -7.153442 -6.049974 -3.007112
C 6.023005 3.128367 6.726468
H -5.279119 5.625217 1.159647
H -8.827748 -5.587012 -4.543452
H -6.049974 7.153442 3.007112
H -9.688498 -3.454238 -4.760725
C 5.640275 3.128367 4.294038
H -9.032260 -1.743975 -3.363234
H -7.564715 -0.959636 -1.456630
H 5.625217 5.279119 -1.159647
H 0.959636 -7.564715 1.456630
C 2.119963 2.206263 0.185132
C -2.119963 -2.206263 0.185132
C -2.206263 2.119963 -0.185132
C 2.206263 -2.119963 -0.185132
C 4.894591 -8.504348 3.979056
C 3.549977 2.366277 0.318839
H -0.959636 7.564715 1.456630
C -3.549977 -2.366277 0.318839
C -2.366277 3.549977 -0.318839
H 6.049974 -7.153442 3.007112
C 2.366277 -3.549977 -0.318839
H 8.827748 5.587012 -4.543452
C 3.622793 -9.031586 4.094763
C 4.112274 1.136280 0.248129
H 7.153442 6.049974 -3.007112
C -4.112274 -1.136280 0.248129
C -4.894591 8.504348 3.979056
C -1.136280 4.112274 -0.248129
C 1.136280 -4.112274 -0.248129
H 9.688498 3.454238 -4.760725
C 2.604051 -8.638967 3.282239
C 3.065440 0.182488 0.073281
C -3.065440 -0.182488 0.073281
C -0.182488 3.065440 -0.073281
C -3.622793 9.031586 4.094763
C 0.182488 -3.065440 -0.073281
H 9.032260 1.743975 -3.363234
C 3.206576 -1.190892 -0.104137
C -3.206576 1.190892 -0.104137
C 1.190892 3.206576 0.104137
H 7.564715 0.959636 -1.456630
C -1.190892 -3.206576 0.104137
C -2.604051 8.638967 3.282239
C 5.604991 1.107064 0.500114
C -5.604991 -1.107064 0.500114
C -1.107064 5.604991 -0.500114
C 1.107064 -5.604991 -0.500114
C -5.729047 -1.745997 1.887320
C 1.745997 -5.729047 -1.887320
C -6.305727 -1.179655 2.964686
C 1.179655 -6.305727 -2.964686
C -1.745997 5.729047 -1.887320
C 1.867806 -6.264375 -4.218185
C -1.179655 6.305727 -2.964686
C 1.254718 -6.796107 -5.412544
C -1.867806 6.264375 -4.218185
C 1.887808 -6.674748 -6.617189
C -1.254718 6.796107 -5.412544
C 5.729047 1.745997 1.887320
C 3.128367 -6.023005 -6.726468
C -1.887808 6.674748 -6.617189
C 6.305727 1.179655 2.964686
C -3.761457 5.533074 -5.604105
C 3.761457 -5.533074 -5.604105
C -3.128367 6.023005 -6.726468
C 3.128367 -5.640275 -4.294038
C 5.078652 3.723700 3.116391
C -5.078652 -3.723700 3.116391
C -3.723700 5.078652 -3.116391
C 3.723700 -5.078652 -3.116391
C 5.122701 3.048360 1.956744
C -3.128367 5.640275 -4.294038
C -5.122701 -3.048360 1.956744
C -3.048360 5.122701 -1.956744
C 3.048360 -5.122701 -1.956744
C 4.501073 3.487725 0.618393
C -4.501073 -3.487725 0.618393
C -3.487725 4.501073 -0.618393
C 3.487725 -4.501073 -0.618393
C 5.605665 3.387491 -0.425547
C -5.605665 -3.387491 -0.425547
C -3.387491 5.605665 0.425547
C 3.387491 -5.605665 0.425547
C -6.014465 -4.416571 -1.234214
C 4.416571 -6.014465 1.234214
C -7.051636 -4.151154 -2.199730
C 4.151154 -7.051636 2.199730
C -4.416571 6.014465 1.234214
C -7.519542 -5.175290 -3.062394
C 5.175290 -7.519542 3.062394
C -4.151154 7.051636 2.199730
C -8.504348 -4.894591 -3.979056
C -5.175290 7.519542 3.062394
C -9.031586 -3.622793 -4.094763
C 6.014465 4.416571 -1.234214
C -8.638967 -2.604051 -3.282239
C -7.624945 -2.852387 -2.306438
C 7.051636 4.151154 -2.199730
C 2.852387 -7.624945 2.306438
C -7.181085 -1.828701 -1.416775
C 7.519542 5.175290 -3.062394
C 1.828701 -7.181085 1.416775
C -2.852387 7.624945 2.306438
C -6.196279 -2.108501 -0.502685
C 8.504348 4.894591 -3.979056
C 2.108501 -6.196279 0.502685
N 1.850051 0.849513 0.049883
C -1.828701 7.181085 1.416775
N -1.850051 -0.849513 0.049883
N -0.849513 1.850051 -0.049883
C 9.031586 3.622793 -4.094763
N 0.849513 -1.850051 -0.049883
C -2.108501 6.196279 0.502685
C 8.638967 2.604051 -3.282239
C 7.624945 2.852387 -2.306438
C 7.181085 1.828701 -1.416775
C 6.196279 2.108501 -0.502685
H -7.229854 -0.411272 5.361119
H -7.038825 -1.483277 7.396287
H -5.919625 -3.532897 7.580133
H 5.121802 4.613892 5.683814
H -5.121802 -4.613892 5.683814
H 7.229854 0.411272 5.361119
H 7.038825 1.483277 7.396287
H 5.919625 3.532897 7.580133
H 5.587012 -8.827748 4.543452
H 3.454238 -9.688498 4.760725
H -5.587012 8.827748 4.543452