64
Fe2 H24 C36 N2
C 1.143773 -0.616855 -0.801153
C 0.979433 0.192438 -3.123726
H 5.065759 4.229112 2.008963
C -7.850790 -1.301177 0.949507
Fe -8.134393 -3.180918 0.180062
C -0.241078 -0.356375 -3.269518
C 3.002846 -0.263777 0.484548
C 8.153158 2.110648 1.184412
C -9.288661 -2.853513 1.828989
C 5.887460 4.704901 1.994705
H 5.769169 5.913946 0.265944
H 8.090633 6.744317 0.850271
C -8.019989 -2.240709 1.993364
C -2.199853 -1.519498 -2.247907
C 6.284580 5.642927 1.017244
H 8.810941 5.597757 3.002708
C 1.701432 0.099087 -1.891758
C 7.581347 6.112693 1.345071
H 6.933069 4.041657 3.725215
H -0.684036 -0.303677 -4.107709
N 1.806838 -0.802051 0.364316
C 7.986283 5.469023 2.550238
N -0.748040 -1.783741 0.143409
H -2.690761 -1.444968 -3.057407
C 6.935393 4.596493 2.954396
C -0.880906 -1.021877 -2.164825
H 3.481502 -0.423377 1.290368
C -2.767862 -2.113481 -1.143743
C -1.977212 -2.228664 0.023217
H 9.687563 4.256214 -0.669172
C -0.198831 -1.161151 -0.938903
H 10.067785 2.977909 1.485105
H -2.365460 -2.659282 0.776554
C 9.080476 3.641152 -0.271804
C 9.294245 2.923705 0.935739
H -7.667439 -3.164431 -2.494826
C 3.625987 0.536481 -0.505402
H -9.410121 -4.780757 -1.615373
C 2.957430 0.694575 -1.705061
H -8.493365 -5.863327 0.481486
C -4.108143 -2.617124 -1.107864
H 1.371273 0.652417 -3.856589
C -5.206772 -3.076350 -0.998396
Fe 7.616729 4.079073 1.093252
C -6.448406 -3.755403 -0.854074
H -9.150303 -0.801298 -0.633805
C -7.582100 -3.707975 -1.719757
H -10.749346 -2.503447 0.326786
C -8.560115 -4.610618 -1.225747
H 3.348425 1.206500 -2.403728
C -8.048294 -5.212129 -0.049312
H -6.201474 -4.889918 0.940725
H -7.090770 -0.745589 0.817212
H -7.394947 -2.428164 2.683320
C -9.001383 -1.331290 0.140333
C 4.901208 1.155307 -0.261665
C -6.761033 -4.676867 0.202105
C -9.893636 -2.282115 0.675172
C 5.955689 1.693581 -0.054532
H 7.410459 3.620073 -1.578601
H -9.665715 -3.522778 2.387795
C 7.222460 2.321441 0.113348
C 7.807579 3.284310 -0.783999
H 8.029375 1.531722 1.927791