11
H5 C6
C -0.380427 -0.788321 1.087408
H 1.692801 1.591580 0.306371
H 0.664817 1.353688 -1.786191
H -0.978805 -0.261838 -2.013662
H -0.633587 -1.315780 1.808652
C 0.618788 0.172024 1.277758
C -0.577968 -0.156541 -1.182894
C 1.017707 0.962725 0.191580
C 0.415493 0.822329 -1.063885
C -1.015245 -0.990140 -0.146162
H -1.678831 -1.630696 -0.267101