100
Ag1 P1 H39 C54 N4 O1
Ag 0.883310 -0.246472 -0.232841
C 4.115992 2.399012 2.349552
P -5.023663 -0.271626 0.753309
H -4.808669 -0.523948 4.988171
H -3.960966 2.289815 -0.155731
H -0.424396 1.898852 4.199995
H -3.234090 -0.940260 3.336407
H 5.425136 0.900483 2.529933
C 7.043827 4.398675 4.826534
C -2.944874 2.257641 3.470344
H -6.684355 1.131551 2.573628
H 7.440828 -2.374441 -3.913870
H 3.273275 -0.817414 -5.180758
H 6.940261 1.954426 3.866316
H -5.376361 -5.341275 -5.629391
H -6.396673 -4.723144 -4.613058
H -5.687058 -6.080302 -4.282084
H 0.141378 -3.804722 -3.846350
H 2.496534 -3.173917 -4.068298
C -3.854332 2.492609 4.458228
C 3.902340 3.684022 2.755021
H 7.015058 -1.996153 -7.460270
H 7.605765 -3.118343 -6.537174
C 6.017761 3.691822 3.958710
H 8.154279 -1.653938 -6.439384
H 4.895801 -1.260051 -6.766701
C 3.642275 -0.047188 -1.570253
C 1.418686 1.959300 3.324219
H -3.385602 -1.341948 -3.448507
C -5.824570 4.135433 1.714499
C 5.640322 -1.795309 -3.199983
H -3.512182 -5.921382 -3.058702
C 4.836347 4.352852 3.568141
H -5.075254 -2.542136 -4.516354
H -1.782255 -4.718269 -2.168208
C 3.116009 1.674609 1.513005
C -2.690946 0.968731 3.034309
C 6.186534 2.417536 3.580895
C -5.578506 1.744807 6.152272
C 3.348456 -1.017283 -2.512829
C 4.385454 -1.325374 -3.548525
C 4.837114 0.750338 -1.522067
C -4.880973 3.795169 0.718336
C -0.004956 -2.304243 -2.358691
C 4.800291 1.479615 -0.392057
C 3.547340 1.175425 0.285990
C -1.966371 -0.088137 0.863879
C -6.477800 3.148764 2.388037
C -2.379866 -3.044246 -2.732347
C -4.330350 0.182905 4.618724
C 1.830263 1.514714 2.034179
C -4.448108 -4.463802 -4.020893
C -1.649921 0.650891 2.015313
C -4.609593 2.505284 0.476068
C 0.099760 1.699958 3.456180
C -1.780529 -1.410196 -0.974574
C -1.049625 -0.664344 -0.047220
C -0.346722 1.075003 2.271263
C -3.277818 -0.530773 0.354906
C -1.355143 -2.244770 -2.004621
C -3.389438 -0.066687 3.614930
C -6.224256 1.798430 2.114209
C 2.138658 -1.724136 -2.582731
C 5.266144 1.780881 2.784216
C -4.557043 1.468891 5.067795
C 4.108896 -1.128430 -4.913839
C -5.582150 -5.222329 -4.698967
H 1.963364 2.358063 3.963157
H -5.600753 2.685653 6.338008
C 0.578463 -3.138818 -3.364302
C -5.280084 1.466941 1.152991
H 6.746555 5.293698 5.007929
C 1.879552 -2.787829 -3.490469
H 7.885776 4.427924 4.368331
H 7.145474 3.921915 5.653148
H -2.489953 2.972294 3.085130
H 5.455822 2.070447 -0.098490
C 6.604632 -2.062451 -4.173128
C 6.322704 -1.867457 -5.525981
C 7.371784 -2.189197 -6.589786
C 5.089507 -1.401421 -5.865538
N 2.861698 0.266753 -0.480744
H -4.006995 3.368132 4.729499
H 3.127517 4.124709 2.490599
N 0.742825 0.935582 1.412274
C -3.402863 -2.271094 -3.427320
C -3.479578 -5.006860 -3.222424
C -4.407832 -2.999397 -4.057294
C -2.443923 -4.267833 -2.640556
H 4.675245 5.225450 3.844193
H -5.997754 5.028506 1.909518
N 0.988697 -1.465769 -1.850801
N -3.145676 -1.307824 -0.691538
O -5.566423 -1.189853 1.761088
H 5.843234 -1.933755 -2.302922
H -4.451943 4.463023 0.235187
H -7.102453 3.374957 3.040781
H -5.336086 1.266097 6.948926
H -6.444620 1.456216 5.856004
H 5.515277 0.761062 -2.158634