96
Ni1 H34 C54 S1 N6
Ni 0.794876 0.088762 1.399811
H 0.840066 -3.767241 -3.226267
H 0.271594 -4.858008 1.637562
H 1.442352 -5.133570 -0.605270
H -2.111521 -3.442882 -1.412314
H -3.859005 1.241674 -0.736942
H 0.424778 -4.237993 -5.597964
H -1.482932 -7.273482 -2.335237
H -5.595529 2.297995 -1.836570
H 0.636919 -7.152923 -1.475824
H -2.819964 -5.440707 -2.373480
H -4.103833 0.040395 -8.410886
H -1.064757 -2.472673 -6.492509
H -2.873514 -1.394824 -6.945205
C -0.468970 -1.390518 -2.281421
C 2.342104 1.838725 3.236120
C -0.732655 2.401331 0.377069
C -1.286774 1.722472 -0.687234
C 1.470488 -2.306188 3.000663
C 3.292732 1.758353 4.306692
C -1.759892 -0.421745 -4.499108
C -0.849745 0.470961 -1.057275
C -0.013797 -1.592884 -0.928886
H 4.550623 -4.814951 6.108008
C -0.258277 -4.090165 -0.903810
C -2.392559 2.408507 -1.440435
C -1.070438 -0.169147 -2.342235
C 0.305474 -3.263479 -3.796360
C 2.474592 -0.263871 3.837432
C 0.166690 -2.794162 -0.264568
C 0.583141 -4.015534 1.880407
H 3.778445 2.463045 4.670605
H 4.033679 4.354664 2.376073
C -1.047478 -1.650293 -4.597640
C 0.560480 -2.837219 1.063952
C 0.574658 -5.189543 -0.934258
H -1.280467 3.803540 -2.338850
C -1.544543 -4.179149 -1.431875
H -1.719934 4.267116 0.365858
C -3.682142 1.970765 -1.285232
C 0.079099 -3.521819 -5.115816
H 4.766317 6.368277 3.243645
C -1.172004 -6.469759 -1.985905
H 3.448206 7.565250 4.662714
C -2.533924 0.112156 -5.630950
H -5.159959 4.100630 -3.194335
C 0.092027 -6.399433 -1.471582
H -0.000617 5.020606 1.944082
C -1.973854 -5.386168 -1.991887
H -3.048908 4.878519 -3.414073
C -3.731365 0.326004 -7.607617
C -0.756081 -2.531517 -5.618594
C -3.017303 -0.493506 -6.762314
C -3.832087 1.600479 -7.141042
S -3.015031 1.751607 -5.617755
N 1.883170 0.574297 2.904359
H -4.431376 3.530848 -7.226644
N 0.300163 1.926273 1.174547
H -4.109638 2.932362 -8.637786
N 1.056486 -1.770851 1.788994
H -5.444205 2.550594 -7.910337
N -0.114512 -0.372948 -0.248671
N -0.385881 -2.136832 -3.457469
N -1.743052 0.341791 -3.423827
C 1.782886 3.021346 2.783402
C 0.712266 3.021346 1.897445
H 1.269115 -4.255216 3.772348
C 3.494845 4.828287 2.969084
C 2.251703 4.315913 3.336782
H 2.316351 -2.439663 8.390516
H 1.640044 -1.265654 6.529591
C 1.478363 5.042134 4.213916
H 3.907832 -3.622284 4.231568
C -2.149885 3.490662 -2.230255
H 3.865328 0.126509 5.372373
C -1.020244 3.756178 0.703784
H 3.733032 -4.222206 8.176721
C 3.929261 6.041047 3.481730
C 3.145265 6.751480 4.328506
C -4.463188 3.681546 -2.742903
C -0.095913 4.163780 1.594268
C -3.214992 4.133641 -2.883812
C -4.722340 2.603697 -1.940263
C 2.188395 -1.614412 3.962516
C 1.132813 -3.685434 3.051454
C -4.514835 2.755830 -7.786490
C 2.625760 -2.687956 7.548984
C 2.664050 -2.339198 5.172812
C 2.219934 -1.986134 6.432049
C 3.566183 -3.391214 5.065024
H 0.658022 4.701987 4.489597
C 3.961114 -4.100212 6.189118
C 3.348418 0.473832 4.683485
H 1.359718 6.787361 5.257537
C 3.476978 -3.741407 7.422509
C 1.905740 6.285034 4.696430