93
Ni1 H32 C53 S1 N6
Ni 0.920124 -0.407812 -1.050110
H 5.023583 3.403363 -6.412750
H -5.406874 -0.668237 7.228074
H 7.298036 0.372186 -5.149758
H 1.991376 -3.243139 -5.038682
H -6.655851 1.194644 6.689385
C -0.553192 -1.602584 1.735344
H 7.012385 2.232161 -6.485946
H -0.395426 4.844843 -1.605906
H 3.929980 3.272584 -2.535958
C -5.443925 1.759030 5.120930
C -1.650379 0.634907 2.081744
C -2.013718 -3.085041 3.149387
H 0.293006 -5.344329 -0.441902
C -0.309372 -1.799334 4.204935
H -0.690639 7.059375 -1.048387
C -0.983461 -2.155054 3.055396
H -0.732471 -4.315531 -4.358539
H -2.502553 4.379850 0.412851
C 4.268220 1.114723 -4.246570
C -0.005793 -3.913602 0.963862
H 1.966277 -7.837857 -3.100290
H 0.463918 -8.122666 -4.797833
C 0.187829 4.611475 1.564545
H -0.938044 -6.381846 -5.393653
C -0.733666 -0.254102 1.423389
C 2.743153 1.536123 -2.322923
H -4.237974 5.397023 1.774732
C 2.774228 -1.410192 -4.655072
C -0.638050 -2.376507 5.425805
C 0.027673 4.189202 0.255960
C 0.251174 2.750919 -0.102764
C 2.324835 3.477181 -1.310517
C -0.504189 1.735780 0.455795
C -1.643208 -3.286732 5.491968
C -1.576277 1.837207 1.412069
C -4.144749 3.717234 2.976779
C 3.174618 0.671526 -3.321540
C 0.546387 -3.356481 -1.127422
C -3.345164 2.596309 2.872152
C 2.565069 -0.569717 -3.519439
C 0.888212 -3.481448 -2.461788
C 2.063088 -2.525305 -4.453394
C -2.344787 -3.643324 4.354905
C -4.186581 0.999056 4.633327
C 4.098503 2.215886 -5.066685
C -0.295030 5.118318 -0.721842
C 5.469390 0.423335 -4.301306
C -3.300942 1.319901 3.508101
C 5.134736 2.644842 -5.886649
C -0.012964 -2.491012 0.812160
C 6.494866 0.841248 -5.129891
C 0.761522 -4.820339 -3.123951
C 0.007354 5.950366 1.877564
C -5.198910 -0.104432 6.516902
C 1.350752 2.497207 -0.918771
C 6.326344 1.951130 -5.925147
C -5.893317 0.965053 6.209976
C 1.556325 -5.896218 -2.743773
S -3.930809 -0.344485 5.519867
C 1.428440 -2.411091 -3.169859
N -2.504943 0.346902 3.113782
C 3.182984 2.881698 -2.143237
C 0.275078 -4.439916 -0.230550
C -0.467138 6.441224 -0.390096
C -0.175510 -5.015927 -4.106333
C -2.867087 4.013667 1.185788
C 1.429635 -7.126998 -3.367750
C -0.310567 6.855941 0.907553
C 0.527264 -7.300208 -4.363650
C -0.298615 -6.256879 -4.729558
C -3.838779 4.572241 1.934012
N 1.651941 1.295198 -1.504736
N 1.704530 -1.165490 -2.633336
N 0.408939 -2.153601 -0.457885
N -2.506138 2.825318 1.742237
N -0.099018 0.391658 0.395699
H -5.814435 2.543125 4.783104
H -2.482234 -3.330325 2.384531
H 0.370693 -1.168105 4.162634
H -0.167144 -4.385280 1.748457
H 0.414915 4.002042 2.228680
H -0.169534 -2.141686 6.194480
H -1.864319 -3.670352 6.310272
H -4.780592 3.871263 3.635937
H 3.304894 -1.217511 -5.395273
H -3.037999 -4.260313 4.407601
H 2.353520 4.365319 -1.033380
H 2.180217 -5.788979 -2.062996
H -0.420525 7.753960 1.126750
H 3.288161 2.670998 -5.068689
H 5.586519 -0.334023 -3.773102
H 0.104165 6.234012 2.758330