88
Cu1 H43 C40 N3 O1
H 1.242703 -2.720866 -6.012172
H 1.757386 1.895848 -4.274314
H 2.085013 1.159201 -6.300206
H 0.907083 5.201920 -1.860147
H 2.306051 4.919048 -1.136047
H 0.789736 -2.513426 -8.193751
H 1.986102 -2.337809 -9.242305
H 2.269256 -2.987237 -7.807776
H 1.397177 0.994193 -8.209276
H 1.502700 0.038319 -9.488497
H 0.275602 -0.116082 -8.472508
C 1.341770 -1.931298 -5.493353
C 1.709861 -0.801105 -6.221753
C 1.688540 0.954001 -4.376154
C 1.844614 0.489029 -5.670988
C 2.041518 -0.925215 -7.722369
C 1.744828 -2.316122 -8.293092
C 1.230620 0.090061 -8.548390
Cu -0.189514 0.097723 1.064629
H 0.818423 -2.969558 -3.873342
H -1.790424 -5.846606 2.299566
H -0.799861 -5.951505 4.448961
H 1.749285 2.777468 -2.094841
H 0.322512 -5.596736 3.365042
H 1.316369 6.035215 -0.555863
H 0.706311 -5.672168 -0.010713
H -0.470605 -5.383403 -1.055968
H -1.259374 5.602656 2.025238
H -0.782602 -6.167195 0.303050
H -0.262262 6.366412 1.033464
H 0.377175 6.757719 3.268275
H 0.540616 5.184241 3.512531
H 1.537523 5.949175 2.521316
H -1.506852 3.587190 3.073008
H 3.749412 0.244581 -7.530189
H -3.330972 2.150434 6.000443
H 4.057882 -1.320647 -7.406142
H -3.063606 3.248922 4.865152
H 3.774933 -0.672398 -8.842591
H -1.619426 3.631978 6.704217
H -1.014872 2.158684 6.550473
H -0.749349 3.254815 5.415618
H -3.523144 -1.542230 5.348435
H -3.882477 -0.144369 6.041491
H -1.391512 -1.516301 6.402140
H -1.750641 -0.119618 7.094638
H -2.186691 -2.514605 3.757863
H -2.395720 -4.692722 3.232455
H -0.282374 -4.445209 4.295453
H 0.609495 -3.458691 -1.657655
C 1.292281 -0.298535 -0.974244
C 0.987389 -1.485656 -1.697834
C 1.187031 -1.185929 -3.086869
C 1.093842 -2.096660 -4.127782
C 1.445559 0.246231 -3.196684
C -1.575212 -5.005179 2.775571
C -0.485197 -5.273672 3.815627
C 1.394510 0.797832 -1.883320
C -0.245143 -5.457303 -0.105703
C 1.339670 2.157741 -1.501953
C 0.760633 2.690131 -0.368096
C 0.709052 4.128419 -0.129502
C 1.366278 5.160668 -0.995502
C -0.030864 4.329966 0.988881
C 3.541882 -0.642932 -7.890443
C -0.328749 5.625286 1.687025
C 0.615661 5.904033 2.851108
C -0.447787 3.015552 1.454397
C -1.228604 2.810587 2.602191
C -1.633322 1.598243 3.117168
C -2.364452 1.388092 4.361045
C -2.668525 2.476208 5.341099
C -1.399104 2.920200 6.067850
C -2.534027 0.047513 4.505760
C -3.142828 -0.684891 5.666420
C -2.116975 -0.966664 6.764936
C -1.896339 -0.579757 3.352635
C -1.792266 -1.934480 3.117476
C -1.156458 -2.537352 2.016201
C -1.129962 -3.968097 1.781643
C -0.533228 -4.155500 0.577904
C -0.128963 -2.848630 0.085506
C 0.496843 -2.674192 -1.133779
N 0.038665 2.037638 0.643891
N -1.367690 0.386606 2.534012
N -0.528488 -1.869773 1.004387
O 1.540100 -0.232885 0.295674
H -2.550964 -1.444404 7.501882