100
Si3 H46 C45 N4 O2
Si -1.892864 -1.202714 4.101755
C 1.497613 3.349739 -6.005904
C 0.202983 1.100201 7.253006
C 0.352969 2.010629 4.348125
N -0.901413 -0.008961 0.318270
N -0.730162 1.517541 -2.137111
N 1.812036 0.206421 -2.969746
H -4.178346 -1.732011 3.926929
H -3.762545 -1.614436 5.469638
H -4.002654 -0.290933 4.601816
H 5.219866 -5.638008 -3.242367
H 7.214239 -4.702608 -4.015895
H 7.518146 -2.384398 -3.977046
H 5.807793 -0.997425 -3.201233
H -3.025810 -4.394623 5.916726
H -2.807825 -5.274877 4.596408
H -3.199001 0.906670 2.269922
H -3.137841 3.657724 -2.332079
H -1.693000 3.666048 -4.338033
C -1.676008 -0.480302 2.400192
H -4.963953 1.330149 0.258515
H -6.649962 2.762903 0.995957
H -6.205274 5.021806 1.367372
H -4.054506 5.863562 0.957490
H -2.367640 4.434970 0.220392
H -1.411965 1.899297 -6.184340
H -1.483033 3.061524 -8.211357
H -2.112491 3.033431 6.085367
H -2.768134 2.110516 4.954026
H -2.849529 1.671430 6.490451
C -3.665748 -1.210726 4.580765
C 4.311916 -3.868136 -2.787320
C 5.334573 -4.694284 -3.241491
C 6.521137 -4.139704 -3.693609
C 6.700608 -2.762096 -3.675046
C 5.682708 -1.938028 -3.212731
C -2.451052 0.499839 1.847221
C -1.970539 0.821350 0.537029
C -2.400527 1.836868 -0.321227
C -1.830048 2.116759 -1.583402
C -2.374106 3.113548 -2.483397
C -1.590959 3.116670 -3.571265
C -3.495270 2.737932 0.163220
C -4.774435 2.249942 0.399204
C -5.776608 3.103143 0.841081
C -5.517120 4.444334 1.057498
C -4.239915 4.941688 0.818555
C -3.239044 4.091608 0.378106
C -2.295086 2.109476 5.813066
Si -0.872115 -3.991122 5.031076
H 3.969878 -0.884012 -4.995620
H 4.214504 -3.242802 -0.143493
H 2.704429 -3.268814 1.811003
H 0.433515 -2.148207 2.383105
H 3.494602 -4.251036 -2.488150
H 0.618615 -5.758705 4.552950
H -0.102010 -5.279039 3.207571
H 1.106316 -4.423757 3.818206
H -2.152281 -5.733733 5.984403
H 0.175786 -4.163635 7.144111
Si -0.693771 1.190412 5.635825
H 0.712387 -2.865104 6.377304
H -0.720193 -2.839092 7.089959
C -0.668682 -0.789328 1.414926
H 2.493702 0.811986 -5.993545
C 3.257738 -0.438683 -4.552700
C 2.861101 -0.645740 -3.193707
H 0.333096 4.365257 -8.872280
C 3.356908 -1.606112 -2.299883
H 2.212714 4.517168 -7.505550
C 2.814035 -1.852708 -1.021423
H 2.254888 3.447545 -5.441630
C 3.404617 -2.755853 -0.046575
C 2.587125 -2.768338 1.010931
C 1.482662 -1.870396 0.706227
C 0.417781 -1.648772 1.574979
H 0.425804 2.005427 7.554528
H -0.368970 0.665277 7.920514
H 1.026969 0.580997 7.141759
H 0.556755 2.927301 4.627027
H 1.187732 1.509114 4.236683
H -0.131994 2.029358 3.496866
C 4.474515 -2.481163 -2.765079
C 0.328618 -4.979378 4.036231
H -0.514819 -0.001677 -0.340388
C -2.393425 -4.962731 5.428702
H 1.425447 0.196016 -2.389957
C -0.083290 -3.394713 6.595119
N 1.654185 -1.308532 -0.529548
O -1.040768 -0.342333 5.179338
O -1.308797 -2.716106 4.107270
C -0.555052 2.118840 -3.353339
C 0.461310 1.834787 -4.283022
C 1.520851 0.920196 -4.102083
C 2.450791 0.493596 -5.098904
C 0.428574 2.553765 -5.597193
C -0.678551 2.444513 -6.441236
C -0.717927 3.128115 -7.653583
C 0.356120 3.901199 -8.042711
C 1.466287 4.000045 -7.226427