128
Si1 Ni1 H64 C56 S2 N4
S 4.461691 -3.866750 1.291251
S 5.022450 -3.172990 -1.485810
Ni 0.220252 -0.026639 0.228004
N -1.568142 -0.433968 0.789968
N 0.603656 -1.888829 0.002637
N 1.996279 0.400736 -0.307878
H -4.278388 -0.024900 2.461434
H -4.113129 -2.257101 1.416688
H -0.056961 -4.958036 -0.694296
H 2.381489 -4.516911 -0.489153
H 5.158546 -0.022630 -0.534239
C -2.386895 0.363151 1.508724
C -3.571738 -0.349402 1.915230
C -3.467848 -1.561524 1.362677
C -2.211272 -1.625732 0.677042
C -1.676979 -2.792440 0.165974
H 5.020125 -1.805061 0.405074
C -0.333828 -2.908327 -0.175121
H 6.781162 -3.575746 1.178688
H 6.417992 -5.131836 1.071651
C 0.348878 -4.128280 -0.472061
H 6.268786 -5.074190 -1.094344
C 1.679661 -3.885543 -0.376083
H 7.184676 -3.770391 -0.947665
C 1.825602 -2.480796 -0.069986
C 3.032707 -1.802696 -0.034805
H -3.863397 -3.158159 -1.354426
C 3.084652 -0.440233 -0.286889
H -4.868138 -6.923601 -0.185036
C 4.264547 0.297377 -0.586305
H -1.634063 -5.098448 1.435844
C 3.876196 1.547085 -0.961698
Si -5.324265 3.900858 4.105120
C 2.483573 1.644180 -0.719492
H -5.489599 -3.167133 -2.576743
H -6.983638 -3.699136 -2.791027
H -6.507722 -3.211890 -1.342851
H -6.774423 -6.575327 -1.007812
H -7.240024 -5.149329 -0.450340
H -7.715940 -5.636559 -1.898487
H -5.332131 -6.761327 -2.794340
H -6.482665 -5.927468 -3.530550
C 4.365964 -2.496456 0.097284
H -4.956247 -5.461647 -3.649113
C 6.164252 -4.226941 0.762171
H -2.456996 -6.275961 3.307592
C 6.300299 -4.156469 -0.721278
H -3.984825 -6.751852 3.326391
N -0.170572 1.855597 0.383748
C -2.582308 -3.985770 -0.003433
C -3.687996 -3.941920 -0.846435
H -2.819647 -7.787434 3.688349
C -4.563641 -5.064778 -0.949678
H -3.859439 -8.852536 0.450547
C -4.294021 -6.168843 -0.138778
H -3.672115 -9.350775 1.959753
C -3.213069 -6.203297 0.735896
H -4.837268 -8.315193 1.597785
C -2.359686 -5.096099 0.821536
H -1.481963 -8.237361 0.446154
C -5.788061 -5.025627 -1.852412
H -0.882690 -7.298639 1.595369
C -6.228357 -3.663163 -2.166416
H -1.403847 -8.768706 1.953679
C -6.980324 -5.648915 -1.252539
C -5.627278 -5.866596 -3.057296
C -2.960765 -7.416985 1.661184
C -3.064655 -7.022341 3.127367
C -3.920512 -8.589957 1.394668
C -1.553301 -7.982329 1.388021
H 0.056205 5.021664 -0.244340
H -1.864402 4.489912 1.176346
H 4.434333 2.227863 -1.320111
H -6.376524 1.855534 4.734241
C 0.522028 2.945568 -0.195681
H -5.277441 2.252543 5.827609
C -0.187887 4.157690 0.065513
C -1.239157 3.871103 0.816721
H -6.701057 2.983576 5.822022
C -1.256472 2.449130 0.979494
H -7.014607 3.714858 2.461026
C -2.231060 1.752237 1.677488
H -7.373572 4.899356 3.475501
H -6.282800 5.131805 2.327803
H -5.324884 5.704321 5.585651
H -3.919572 4.941498 5.651049
H -4.234087 5.936786 4.437972
C 1.761289 2.817151 -0.752698
C -3.180913 2.458526 2.466197
C -4.007087 3.105305 3.110777
C -6.000788 2.591640 5.259956
C -6.656285 4.480297 2.957062
C -4.620533 5.278982 5.053510
H 2.515408 3.265214 -3.239846
H 3.943650 7.035104 -2.918004
H 2.487754 5.132478 0.356547
H 4.421075 3.231481 -4.910175
H 2.893816 3.394742 -5.359525
H 4.070173 3.866984 -6.336372
H 5.141553 6.664263 -4.527204
C 2.441522 4.012048 -1.353291
H 5.795591 5.205143 -4.462008
C 2.745772 4.015180 -2.703735
H 5.377656 5.832362 -5.873757
C 3.386428 5.114547 -3.287238
H 2.786116 6.951602 -5.080629
C 3.594208 6.251499 -2.511005
H 3.056997 6.162955 -6.446530
C 3.299853 6.264028 -1.147045
H 1.880639 5.690712 -5.469682
C 2.706195 5.134905 -0.566226
H 5.518996 7.022920 0.024132
C 3.752517 5.152132 -4.788017
H 4.968353 8.059081 1.112317
C 3.787147 3.795933 -5.401029
H 4.571196 6.511777 1.207951
C 5.140192 5.769156 -4.925980
H 4.706426 8.494631 -1.674566
C 2.782876 6.071403 -5.509211
H 3.162594 8.906847 -1.762575
C 3.534842 7.513735 -0.269603
H 4.080909 9.490231 -0.588948
C 4.756788 7.253771 0.594173
H 1.545643 8.035230 -0.097506
C 3.903405 8.708632 -1.153647
H 2.064327 7.150443 1.131005
C 2.290634 7.881757 0.519736
H 2.461484 8.697763 1.035370