77
Sn1 H26 C40 N8 O2
H 0.910117 -4.973520 1.157679
H -0.664261 -4.237032 2.926280
H 3.341606 -0.309096 -3.956750
H 3.333711 -2.599968 -3.011535
H -3.416039 -3.422952 2.684135
H -4.530284 -4.431648 4.444740
H -2.491261 -2.341752 7.065221
H -1.348822 -1.218576 5.387246
H 1.392806 -4.753464 -2.805178
H 2.632234 -6.664008 -3.198427
H 4.722006 -6.129768 0.080656
H 3.577311 -4.167072 0.566797
H -1.996167 -1.068480 -0.959481
C 0.746589 -3.000648 0.349420
C 0.522161 -4.109832 1.235816
Sn 0.000000 0.000000 0.000000
C -0.342844 -3.707880 2.206198
H -0.910117 4.973520 -1.157679
C -0.680050 -2.334120 1.942881
H 0.664261 4.237032 -2.926280
C -1.545056 -1.523856 2.707135
H -3.341606 0.309096 3.956750
C -1.825872 -0.166632 2.511998
C 2.798017 -0.618192 -3.240998
H -3.333711 2.599968 3.011535
H 3.416039 3.422952 -2.684135
C 2.796889 -1.872384 -2.721828
H 4.530284 4.431648 -4.444740
C 1.829256 -1.895280 -1.647834
H 2.491261 2.341752 -7.065221
C 1.586783 -2.982840 -0.779638
H 1.348822 1.218576 -5.387246
C -2.251045 -2.198016 3.830925
H -1.392806 4.753464 2.805178
C -3.211911 -3.173640 3.578559
H -2.632234 6.664008 3.198427
C -3.868278 -3.779112 4.638032
H -4.722006 6.129768 -0.080656
C -2.686367 -2.555448 6.159949
H -3.577311 4.167072 -0.566797
C -1.991656 -1.882560 5.163755
C 2.340139 -4.244664 -1.067710
H 1.996167 1.068480 0.959481
C 2.075111 -5.010408 -2.197107
C 2.822828 -6.153936 -2.420052
C 4.041956 -5.839752 -0.516495
C 3.357395 -4.668240 -0.209902
N -0.005639 -1.946160 0.812509
N 1.258600 -0.652536 -1.557820
N -3.615656 -3.487824 5.919486
N 3.796100 -6.586416 -1.609599
C -0.746589 3.000648 -0.349420
O -1.634150 -0.361884 -1.143905
C -0.522161 4.109832 -1.235816
C 0.342844 3.707880 -2.206198
C 0.680050 2.334120 -1.942881
C 1.545056 1.523856 -2.707135
C 1.825872 0.166632 -2.511998
C -2.798017 0.618192 3.240998
C -2.796889 1.872384 2.721828
C -1.829256 1.895280 1.647834
C -1.586783 2.982840 0.779638
C 2.251045 2.198016 -3.830925
C 3.211911 3.173640 -3.578559
C 3.868278 3.779112 -4.638032
C 2.686367 2.555448 -6.159949
C 1.991656 1.882560 -5.163755
C -2.340139 4.244664 1.067710
C -2.075111 5.010408 2.197107
C -2.822828 6.153936 2.420052
C -4.041956 5.839752 0.516495
C -3.357395 4.668240 0.209902
N 0.005639 1.946160 -0.812509
N -1.258600 0.652536 1.557820
N 3.615656 3.487824 -5.919486
N -3.796100 6.586416 1.609599
O 1.634150 0.361884 1.143905