18
H7 C7 S1 O3
C 1.972754 -0.717083 1.042558
O -2.508207 -0.165444 -1.072171
H 2.318290 0.607641 4.125210
C 1.118818 -0.752673 -0.053160
O -0.756319 1.043613 -2.292860
H 3.533167 0.364445 3.162753
C -0.052042 -0.003314 -0.046686
H 2.749659 -0.854499 3.758451
C -0.366766 0.781634 1.054994
C 0.487170 0.817224 2.150712
H 2.756262 -1.218303 1.036793
C 1.658030 0.067865 2.144238
H 1.330101 -1.277619 -0.791016
O -0.817943 -1.267733 -2.140777
S -1.139269 0.097523 -1.373844
H -1.150274 1.283843 1.060759
H 0.275887 1.342171 2.888568
C 2.670428 0.044139 3.430293