102
H33 Ru1 C54 N5 O9
H -6.045587 -0.525771 -5.019061
H -4.729024 -0.643835 -3.094536
H -5.504248 0.369783 -9.134219
C -0.279562 2.428693 3.500783
C 0.795990 1.728951 3.827277
C -2.056132 4.846113 2.405809
C -4.626774 4.381058 3.287721
C 2.630651 -0.600641 5.107700
C 3.496290 -0.550248 6.194546
C 4.765374 -0.063596 6.026149
C 5.193433 0.359704 4.759377
C 5.686135 0.067425 7.179364
C -5.147761 -0.214775 -5.048936
C -5.581017 0.273316 -7.379049
O 6.853452 0.431694 7.072043
O 5.137209 -0.253650 8.319777
H 3.969767 -2.217533 2.354619
H 3.604014 -3.677488 0.371625
H 0.310011 -3.494634 -3.838973
H -1.538613 -1.975647 -4.542486
H -2.373802 6.687614 3.233648
H -4.049401 2.173849 -2.377829
H -3.937332 3.361682 -0.203938
H -4.666930 8.280029 4.897702
H 0.800050 -5.411004 -1.139585
H 1.888342 -7.360490 -1.880000
H 4.661776 -5.052494 -3.663558
H 3.596967 -3.124606 -2.905530
H 5.593411 -8.097666 -4.357070
H -1.717438 1.062325 -5.139139
H -3.032334 1.023451 -7.031409
H -4.343707 2.538117 2.444129
O -6.757399 0.019912 -7.284574
H 4.622667 0.571354 2.821346
H 2.258717 -0.190299 -1.823709
H 3.793225 1.161671 -2.893429
H 3.643683 3.512860 -2.586792
H 1.925132 4.362341 -1.165632
H 0.451350 2.866391 -0.173814
Ru -0.157135 -0.146529 0.073294
C 2.266666 -1.121847 1.688103
C 3.285845 -2.122507 1.703020
C 3.097729 -2.912955 0.615123
C 1.959010 -2.349995 -0.101890
C 1.463898 -2.862562 -1.330752
C 0.393740 -2.270806 -2.062783
C -0.035995 -2.753138 -3.356879
C -1.042495 -1.918055 -3.734256
C -1.226701 -0.936114 -2.704954
C -2.175645 0.080383 -2.711711
C -2.417131 0.996094 -1.680083
C -3.435446 1.998193 -1.673418
C -3.371716 2.653301 -0.490494
C -2.279694 2.068744 0.248569
C -1.846937 2.502123 1.510752
C -0.745843 1.986675 2.212516
C 1.033478 0.757088 2.740985
C 2.052715 -0.155743 2.701142
C -2.771434 5.838133 3.086195
C 2.119485 -4.057594 -1.869227
C 1.610951 -5.330375 -1.627219
C -4.044717 5.591928 3.540703
C 2.248454 -6.503810 -2.072797
C 3.396327 -6.369909 -2.791794
C 3.884885 -5.125924 -3.121623
C -4.802071 6.628582 4.277394
C 3.250242 -3.976966 -2.667146
C 4.093264 -7.599496 -3.257246
C -3.054829 0.158132 -3.922840
C -2.594104 0.696617 -5.097692
C -3.393287 0.705255 -6.212488
C -4.672840 0.277636 -6.187269
C -4.364507 -0.288205 -3.896162
C -2.618109 3.587730 2.169186
C -3.924159 3.374640 2.607936
C 3.031773 -0.161503 3.862621
C 4.328981 0.297793 3.684120
C -1.312121 -1.334937 0.910722
C 2.199268 0.749889 -1.703188
C 3.118384 1.541778 -2.343304
C 3.030774 2.925423 -2.160128
C 2.010494 3.429352 -1.321871
C 1.140822 2.530919 -0.734033
O -4.188490 7.766022 4.435536
O -5.931916 6.421251 4.715802
N 1.470122 -1.273026 0.569618
N -0.310707 -1.190958 -1.689105
N -1.719867 1.069524 -0.495068
N 0.057560 0.961539 1.780876
N 1.230271 1.217823 -0.921329
O 3.677266 -8.722538 -2.967637
O 5.119946 -7.386406 -3.990572
O -4.999054 0.568475 -8.495307
O -2.001209 -2.096590 1.375428
H -0.678044 3.109717 4.030801
H 1.317050 1.832617 4.613142
H -1.176288 5.030407 2.098910
H -5.516604 4.218361 3.578001
H 1.750153 -0.938993 5.224227
H 3.209621 -0.852605 7.049084
H 6.075982 0.687978 4.642765
H 5.685371 -0.118309 8.942525