16
H7 C7 N1 O1
H 0.214657 -0.020980 -1.999356
C 1.427150 -1.310743 -0.982984
H 1.842399 -1.650004 -1.766674
H -0.141049 -0.015254 2.022188
C -0.149942 0.146503 -0.003054
C 0.456305 -0.341345 -1.138176
N 1.816107 -1.799451 0.183151
O -1.720848 1.613770 0.972420
H -2.429940 2.286566 -1.313889
C 0.254867 -0.336478 1.222039
C -1.239485 1.199786 -0.065136
H 1.513757 -1.595608 2.117336
H -1.892515 0.935249 -1.978381
C -1.655120 1.695651 -1.409737
C 1.232285 -1.283259 1.265763
H -0.914323 2.189225 -1.819763