89
H28 Pd1 C48 N4 O8
H -4.823993 -1.278725 1.252641
O 6.938383 -5.822902 3.684056
H -5.092185 0.510929 -0.427188
O 6.083456 5.165853 -5.971071
H -1.787369 3.336476 -3.479806
O 6.475362 6.190237 -4.016462
H -0.669614 -3.458594 3.742349
H -4.666538 0.724283 -3.130491
H 4.823993 1.278725 -1.252641
H -6.422762 1.946863 -4.069415
H 5.092185 -0.510929 0.427188
H -5.130251 5.291761 -2.162642
H -3.405171 4.057952 -1.197018
H 1.787369 -3.336476 3.479806
H 0.669614 3.458594 -3.742349
H -7.526674 6.222380 -4.131714
H 4.666538 -0.724283 3.130491
H -3.621455 -3.940046 1.067971
H 6.422762 -1.946863 4.069415
H -5.080073 -5.356328 2.204916
H 5.130251 -5.291760 2.162642
H -4.344708 -3.342091 5.640223
H 3.405171 -4.057952 1.197018
H -2.860136 -1.948266 4.507728
H 7.526675 -6.222380 4.131714
H -7.040469 -6.613999 4.472129
H 3.621455 3.940046 -1.067971
H 5.080073 5.356328 -2.204916
H 4.344708 3.342091 -5.640223
H 2.860136 1.948266 -4.507728
H 7.040469 6.613999 -4.472129
C -2.708046 -1.025787 0.978751
C -4.124445 -0.816784 0.803426
C -4.269095 0.152577 -0.113917
C -2.950110 0.552336 -0.539770
C -2.684687 1.534751 -1.496940
Pd 0.000000 0.000000 0.000000
C -1.410170 1.890295 -1.937478
C 2.708046 1.025787 -0.978751
C -1.141805 2.847865 -2.981642
C 4.124445 0.816784 -0.803426
C 4.269095 -0.152577 0.113917
C -0.197597 -2.919171 3.118476
C 2.950110 -0.552336 0.539770
C -0.781563 -2.031082 2.150627
C 2.684687 -1.534751 1.496940
C -2.151418 -1.903911 1.908999
C -3.839296 2.277984 -2.088106
C 1.410170 -1.890295 1.937478
C 1.141805 -2.847865 2.981642
C -4.755128 1.649991 -2.937811
C 0.197597 2.919171 -3.118476
C -5.796404 2.379467 -3.501388
C 0.781563 2.031082 -2.150627
C -5.927559 3.741008 -3.237733
C 2.151418 1.903911 -1.908999
C -5.034221 4.368159 -2.364444
C -4.006440 3.633067 -1.795527
C 3.839296 -2.277984 2.088106
C 4.755128 -1.649991 2.937811
C -6.991675 4.514138 -3.945041
C 5.796405 -2.379467 3.501388
C -3.085764 -2.796632 2.669483
C 5.927559 -3.741008 3.237733
C -3.761434 -3.818770 1.998886
C 5.034221 -4.368159 2.364444
C -4.635393 -4.660118 2.673488
C 4.006440 -3.633067 1.795527
C -4.861367 -4.481854 4.040936
C 6.991675 -4.514138 3.945041
C -4.196078 -3.468419 4.709753
C 3.085764 2.796632 -2.669483
C -3.313294 -2.636055 4.034484
C 3.761434 3.818770 -1.998886
C -5.851773 -5.310710 4.792966
C 4.635393 4.660118 -2.673488
C 4.861367 4.481854 -4.040936
C 4.196078 3.468419 -4.709753
C 3.313294 2.636055 -4.034484
C 5.851773 5.310710 -4.792966
N -2.010920 -0.174895 0.143509
N -0.219225 1.387087 -1.454666
O -7.800749 3.998999 -4.691286
O -6.938383 5.822902 -3.684056
O -6.083456 -5.165853 5.971071
N 2.010920 0.174895 -0.143509
O -6.475362 -6.190237 4.016462
N 0.219225 -1.387087 1.454666
O 7.800749 -3.998999 4.691286