103
Fe1 H38 C58 N6
C -2.230931 1.355908 1.595150
N -0.902546 -1.622861 0.761905
N 1.218094 0.059514 1.581267
N -1.332010 1.008487 0.972079
H -7.112444 -2.860889 -0.858663
H -4.798090 -5.499796 -2.861876
H -4.561957 1.368251 5.406653
H -6.409891 2.378652 4.426951
H -6.365239 2.984318 2.185749
H -4.471189 2.538441 0.890777
C -4.537599 1.604585 4.486140
C -5.634184 2.207381 3.905186
C -5.610716 2.561404 2.578293
C -4.487287 2.300193 1.810387
H -6.893755 -4.854900 -2.044471
H 6.893755 4.854900 2.044471
H 1.599777 -5.104629 5.787939
H -1.599777 5.104629 -5.787939
H 7.112444 2.860889 0.858663
H 4.798090 5.499796 2.861876
H 4.561957 -1.368251 -5.406653
H 6.409891 -2.378652 -4.426951
H 6.365239 -2.984318 -2.185749
H 4.471189 -2.538441 -0.890777
C 4.537599 -1.604585 -4.486140
C 5.634184 -2.207381 -3.905186
C 5.610716 -2.561404 -2.578293
C 4.487287 -2.300193 -1.810387
H 3.122005 3.954533 -0.989466
H 1.598040 3.893296 -2.948632
H -2.437029 0.815210 -4.436423
H -3.704730 -1.043890 -3.390403
H 5.228329 1.567269 0.373302
H -2.917568 -4.185126 -2.409156
H -1.428099 4.147810 -3.660760
H -0.648315 4.047344 -7.634622
H 0.525568 2.056204 -7.349881
H 0.697081 1.094601 -5.233553
H 2.643937 -0.931942 -4.143947
C 2.659859 1.955260 0.942843
C 1.997410 2.283544 -0.242724
C 2.406159 3.345996 -1.129037
C 1.577267 3.312507 -2.197235
C 0.654474 2.224126 -1.974117
C -0.304315 1.816138 -2.903004
C -1.186696 0.756365 -2.690159
C -2.252479 0.406648 -3.598840
C -2.937944 -0.611312 -3.034061
C -2.280924 -0.914528 -1.785570
C 3.872507 2.765877 1.311630
C 5.133706 2.369849 0.872279
C 6.256129 3.142194 1.158682
C 6.130513 4.315445 1.876321
C -4.886425 -4.704488 -2.350688
C -3.766524 -3.922958 -2.073009
C -0.370862 2.506674 -4.232819
C -1.037595 3.710831 -4.407872
C -1.137306 4.282722 -5.675946
C -0.566619 3.660789 -6.770729
C 0.119936 2.480075 -6.603258
C 0.218458 1.908280 -5.341273
C 3.401149 -1.342417 -3.741268
C 3.382866 -1.687924 -2.394465
C 2.230931 -1.355908 -1.595150
N 0.902546 1.622861 -0.761905
N -1.218094 -0.059514 -1.581267
N 1.332010 -1.008487 -0.972079
Fe 0.000000 0.000000 0.000000
H -3.122005 -3.954533 0.989466
H -1.598040 -3.893296 2.948632
H 2.437029 -0.815210 4.436423
H 3.704730 1.043890 3.390403
H -5.228329 -1.567269 -0.373302
H 2.917568 4.185126 2.409156
H 1.428099 -4.147810 3.660760
H 0.648315 -4.047344 7.634622
H -0.525568 -2.056204 7.349881
H -0.697081 -1.094601 5.233553
H -2.643937 0.931942 4.143947
C -2.659859 -1.955260 -0.942843
C -1.997410 -2.283544 0.242724
C -2.406159 -3.345996 1.129037
C -1.577267 -3.312507 2.197235
C -0.654474 -2.224126 1.974117
C 0.304315 -1.816138 2.903004
C 1.186696 -0.756365 2.690159
C 2.252479 -0.406648 3.598840
C 2.937944 0.611312 3.034061
C 2.280924 0.914528 1.785570
C -3.872507 -2.765877 -1.311630
C -5.133706 -2.369849 -0.872279
C -6.256129 -3.142194 -1.158682
C -6.130513 -4.315445 -1.876321
C 4.886425 4.704488 2.350688
C 3.766524 3.922958 2.073009
C 0.370862 -2.506674 4.232819
C 1.037595 -3.710831 4.407872
C 1.137306 -4.282722 5.675946
C 0.566619 -3.660789 6.770729
C -0.119936 -2.480075 6.603258
C -0.218458 -1.908280 5.341273
C -3.401149 1.342417 3.741268
C -3.382866 1.687924 2.394465