89
Mn1 H36 C46 N4 O2
C -6.417906 2.689619 1.693323
C -7.259073 2.549402 0.638324
C -6.817047 1.950293 -0.520275
C -5.514888 1.516894 -0.638534
H 3.311105 6.913979 1.004148
H 2.612191 8.226921 -0.671098
H 1.366133 7.291290 -2.372264
C -2.750536 -6.551964 -0.353945
C -2.371643 -7.329531 0.651169
C -1.629493 -6.768663 1.640463
H 6.723930 -3.088601 -2.480869
H 8.140357 -2.848957 -0.686803
H 7.401789 -1.838119 1.245005
C 2.750536 6.551964 0.353945
C 2.371643 7.329531 -0.651169
C 1.629493 6.768663 -1.640463
Mn -0.000000 0.000000 0.000000
H 2.616650 4.713845 1.258444
H -2.616650 -4.713845 -1.258444
H 0.771867 5.064387 -2.283610
H -0.771867 -5.064387 2.283610
H 3.889070 3.224994 -0.812532
H -3.889070 -3.224994 0.812532
H 4.938449 1.015937 -0.795375
H -4.938449 -1.015937 0.795375
H 4.521921 -2.355648 -2.311762
H -4.521921 2.355648 2.311762
H 5.211410 -1.133209 1.427494
H -5.211410 1.133209 -1.427494
H 3.258706 -3.913332 -0.008947
H -3.258706 3.913332 0.008947
H 2.102951 -0.441047 2.709704
H -2.102951 0.441047 -2.709704
H 1.406398 0.421926 3.816993
H -1.406398 -0.421926 -3.816993
H 1.923214 1.102616 2.504047
H -1.923214 -1.102616 -2.504047
H 1.050037 -4.963686 0.330597
H -1.050037 4.963686 -0.330597
C 6.417906 -2.689619 -1.693323
H -0.085524 -0.497133 2.587326
H 0.085524 0.497133 -2.587326
C 6.817047 -1.950293 0.520275
C 7.259073 -2.549402 -0.638324
C 5.514888 -1.516894 0.638534
H -6.723930 3.088601 2.480869
C 2.056122 2.217980 -0.429439
H -8.140357 2.848957 0.686803
C 1.598714 4.652659 -0.501497
H -7.401789 1.838119 -1.245005
C -1.598714 -4.652659 0.501497
C -2.364072 -5.213527 -0.510859
C 2.364072 5.213527 0.510859
C -2.056122 -2.217980 0.429439
C 1.254632 5.430227 -1.584124
C -1.254632 -5.430227 1.584124
C 3.457402 2.409185 -0.676555
C -3.457402 -2.409185 0.676555
C 4.036068 1.198219 -0.666980
C -4.036068 -1.198219 0.666980
C 3.010001 0.216699 -0.433638
C -3.010001 -0.216699 0.433638
C 3.231190 -1.147231 -0.328022
C -3.231190 1.147231 0.328022
C 4.638909 -1.657111 -0.443052
C -4.638909 1.657111 0.443052
C 5.096220 -2.243474 -1.590203
C -5.096220 2.243474 1.590203
C 2.216165 -2.090510 -0.098935
C -2.216165 2.090510 0.098935
C 2.441597 -3.479934 0.026388
C -2.441597 3.479934 -0.026388
C 1.527238 0.305928 2.873274
C -1.527238 -0.305928 -2.873274
C 1.128464 3.224994 -0.371626
C -1.128464 -3.224994 0.371626
C 0.245927 -3.046536 0.193619
C -0.245927 3.046536 -0.193619
C 1.220000 -4.053549 0.215964
C -1.220000 4.053549 -0.215964
N 1.789292 0.871896 -0.293930
N -1.789292 -0.871896 0.293930
N 0.855122 -1.808801 -0.005883
N -0.855122 1.808801 0.005883
O 0.253741 0.079031 2.250487
O -0.253741 -0.079031 -2.250487
H -3.311105 -6.913979 -1.004148
H -2.612191 -8.226921 0.671098
H -1.366133 -7.291290 2.372264