89
Mn1 H36 C46 N4 O2
C -1.250217 -5.459994 1.499655
C 0.252058 -3.029646 0.144836
C 1.229880 -4.070131 0.122673
C 2.414967 -3.487408 -0.072575
C 1.494169 0.265222 2.872808
C -2.998370 -0.230794 0.435433
C 2.743396 6.565508 0.473919
C -4.027068 -1.212624 0.682806
C 2.337164 7.307619 -0.583509
C -3.450730 -2.409946 0.650555
H -1.335784 -7.307619 2.275168
C -2.053336 -2.212305 0.400218
N 0.854661 -1.808097 -0.039424
C -1.121831 -3.233663 0.323243
C -1.586547 -4.651578 0.436640
C -2.341992 -5.218999 -0.543284
O 0.254532 0.011476 2.257081
C -2.219574 2.084794 0.157896
C -3.218758 1.141218 0.361395
C -4.622859 1.648709 0.506512
C -5.077087 2.225056 1.679609
C -6.385936 2.667517 1.790004
H 4.927164 1.037934 -0.839246
C -7.245860 2.527255 0.724252
C -6.809364 1.989162 -0.407449
H 3.877526 3.227287 -0.766507
C -5.503379 1.528849 -0.544677
H 2.596889 4.706407 1.276408
H 3.232507 -3.927319 -0.140666
H 4.497383 -2.316863 -2.401524
H -3.276416 -6.937839 -1.138440
H 6.682039 -3.057698 -2.581388
H -2.576343 -8.205292 0.626886
H 8.128772 -2.809053 -0.795694
H 7.391597 -1.916481 1.129613
C 1.605057 6.781001 -1.556952
N -1.796757 -0.864520 0.285699
H 0.763201 5.095314 -2.204382
H -1.069977 4.980555 -0.222142
H -5.227649 1.139943 -1.343749
H -2.127344 0.405483 -2.607258
H -1.387639 -0.243545 -3.826276
H -1.812847 -1.131017 -2.607360
H 0.076675 0.702582 -2.491563
C -1.605057 -6.781001 1.556952
C 2.998370 0.230794 -0.435433
C 4.027068 1.212624 -0.682806
C 3.450730 2.409946 -0.650555
C 2.053336 2.212305 -0.400218
C 1.121831 3.233663 -0.323243
C 1.586547 4.651578 -0.436640
C 2.341992 5.218999 0.543284
C -2.743396 -6.565508 -0.473919
C 2.219574 -2.084794 -0.157896
C -2.337164 -7.307619 0.583509
C 3.218758 -1.141218 -0.361395
C 4.622859 -1.648709 -0.506512
C 5.077087 -2.225056 -1.679609
C 6.385936 -2.667517 -1.790004
C 7.245860 -2.527255 -0.724252
C 6.809364 -1.989162 0.407449
C 5.503379 -1.528849 0.544677
N 1.796757 0.864520 -0.285699
C 1.250217 5.459994 -1.499655
Mn -0.000000 -0.000000 -0.000000
C -0.252058 3.029646 -0.144836
C -1.229880 4.070131 -0.122673
C -2.414967 3.487408 0.072575
C -1.494169 -0.265222 -2.872808
N -0.854661 1.808097 0.039424
O -0.254532 -0.011476 -2.257081
H -0.763201 -5.095314 2.204382
H 1.069977 -4.980555 0.222142
H 5.227649 -1.139943 1.343749
H 2.127344 -0.405483 2.607258
H 1.387639 0.243545 3.826276
H 1.812847 1.131017 2.607360
H -0.076675 -0.702582 2.491563
H 3.276416 6.937839 1.138440
H 2.576343 8.205292 -0.626886
H -4.927164 -1.037934 0.839246
H -3.877526 -3.227287 0.766507
H -2.596889 -4.706407 -1.276408
H -3.232507 3.927319 0.140666
H -4.497383 2.316863 2.401524
H -6.682039 3.057698 2.581388
H -8.128772 2.809053 0.795694
H -7.391597 1.916481 -1.129613
H 1.335784 7.307619 -2.275168