124
Mn1 Cr1 H40 C65 N10 Cl4 O3
Cr 0.914899 -3.288640 1.384381
Cl -6.750261 4.395690 5.884927
O -0.667469 3.522487 -1.699210
Mn -0.394581 1.617169 -0.469573
H -2.314643 -5.089949 -1.350845
N -2.379768 1.467679 -0.333904
H -1.930250 -5.151557 -3.644036
H -0.934320 3.571411 -2.467614
H 0.139441 -4.647821 -4.476961
H 1.856505 -3.866849 -3.131975
H -3.051663 -5.162429 3.464918
H -2.776869 -4.372397 5.611866
H -0.939086 -3.118493 6.132577
Cl 6.157743 6.253715 4.458367
Cl 6.017170 -1.034693 -6.818238
H 0.600078 -2.607509 4.471192
H 5.144501 -1.627217 -0.290601
H -4.754431 -3.832421 -3.585230
H 4.640977 -0.476597 3.454811
H 2.636411 -1.665269 3.528924
H 0.746211 -1.018385 -4.682934
H -1.660221 -1.326425 -4.392910
H -3.135848 -2.564021 -2.507423
H -6.520736 -0.471161 -4.836477
H -4.884680 0.744691 -3.793352
H -5.337376 0.534499 -1.114815
H -5.313549 1.991347 0.822078
H -4.285852 1.348087 3.330306
H -5.823427 1.947859 4.937651
H -5.107057 5.765743 4.092582
H -3.650491 5.144227 2.462037
H -1.501381 4.009915 3.862313
H 0.919347 4.192927 3.689688
H 2.366383 5.671519 1.791844
H 5.884697 -0.467537 1.468544
H 3.930960 6.918175 2.942182
H 4.178751 2.342875 2.790994
H 4.515493 2.839363 0.095065
H 4.467841 1.580023 -2.004087
H 2.534753 1.641631 -5.153797
H 4.135864 1.014679 -6.700816
C 1.772320 -5.060957 1.990815
C 0.774802 -3.975569 -1.412191
H 3.726056 -1.243073 -2.765652
C -0.467330 -4.348841 -0.887939
H -1.382250 5.033695 -0.760295
C -1.498204 -4.825397 -1.706558
H -0.603932 5.403343 -2.070320
C -1.253590 -4.885193 -3.064752
H 0.183916 4.975711 -0.783533
C 0.188681 -1.349981 0.973199
C -0.009869 -4.555409 -3.562380
C 1.028947 -4.089725 -2.769525
C -1.425137 -4.243745 2.715438
C -2.332116 -4.615205 3.677746
C -2.152626 -4.164017 4.953219
C -1.072512 -3.419285 5.262551
C -0.159179 -3.102185 4.257632
C -1.588743 -4.644197 1.300438
H 5.749682 3.529735 3.976942
C 2.925501 -3.091313 -0.596390
H 5.304929 -1.926197 -4.333419
C 3.473500 -2.355641 0.542049
C 4.648919 -1.630841 0.495767
C 5.088907 -0.945905 1.525052
C 4.343945 -0.945905 2.709757
C 3.147877 -1.663457 2.752138
C 0.639788 0.246391 -2.949275
C 0.214095 -0.645113 -4.020046
C -1.105868 -0.813629 -3.851961
C -1.515676 -0.079769 -2.708302
C -2.822932 0.018079 -2.275889
C -3.876044 -0.777389 -3.000369
C -3.823627 -2.141825 -2.969972
C -4.786199 -2.902865 -3.619060
C -5.778952 -2.265041 -4.312018
C -5.837723 -0.898793 -4.370692
C -4.870385 -0.183053 -3.732174
C -3.235917 0.770059 -1.187924
C -4.582884 0.918643 -0.729355
C -4.571765 1.703239 0.341889
C -3.208915 2.022151 0.623777
C -2.772104 2.732455 1.726922
C -3.790270 3.158275 2.739490
C -4.455811 2.250463 3.478334
C -5.380262 2.600179 4.445991
C -5.628053 3.915691 4.658290
C -4.956159 4.863367 3.930611
C -4.073006 4.491907 2.972264
C -1.444198 3.029623 1.995064
C -0.977207 3.698251 3.159191
C 0.357052 3.801535 3.062061
C 0.758918 3.212635 1.841502
C 2.064586 3.143779 1.380020
C 3.097048 3.890323 2.166598
C 3.054161 5.229391 2.234837
C 3.981789 5.988619 2.926400
C 4.971365 5.321803 3.588109
C 5.060315 3.973675 3.539101
C 4.118392 3.268807 2.825471
C 2.439449 2.498707 0.210393
C 3.764178 2.457031 -0.300701
C 3.740352 1.770283 -1.457830
C 2.388620 1.386139 -1.682901
C 1.970870 0.659527 -2.779437
C 2.960446 0.253639 -3.809252
C 3.092283 0.918643 -4.975147
N 2.218661 -5.988701 2.451944
C 4.042148 0.541747 -5.905474
N 1.659543 -3.431969 -0.415282
C 4.828408 -0.509213 -5.647514
N -0.605521 -4.189385 0.513674
C 4.747400 -1.201397 -4.502291
C 3.792769 -0.788261 -3.573616
N -0.349788 -3.500825 2.979118
C -0.613463 4.832563 -1.298750
N -0.105174 -0.293585 0.674941
N 2.733304 -2.350205 1.677073
Cl -6.966125 -3.212536 -5.159900
N -0.438738 0.572551 -2.167202
N 1.599184 1.828267 -0.641867
O 3.649813 -3.297881 -1.606555
N -0.364083 2.728831 1.198060
O -2.573553 -5.332757 0.960597