292
Zn4 H96 C160 N32
Zn -6.386963 2.448747 -0.976337
C -8.775815 -8.536235 3.382003
Zn -2.448747 -6.386963 0.976337
C -0.011979 -7.582707 7.649804
N -7.112411 3.275059 -2.726693
N -3.275059 -7.112411 2.726693
C 0.521805 6.038374 3.385016
H -6.816051 -8.679983 -0.534793
C -0.285100 -7.573124 6.236744
H 8.507486 11.274635 2.009618
N -5.947094 0.721615 -2.020163
H -8.253531 5.603776 2.645344
N -0.721615 -5.947094 2.020163
N 0.721615 5.947094 2.020163
C -1.087693 -6.571679 5.750158
H -5.603776 -8.253531 -2.645344
H 6.495014 10.440896 1.324178
N 5.947094 -0.721615 -2.020163
N -7.448303 3.902039 0.046700
N -3.902039 -7.448303 -0.046700
C 1.521333 5.646901 6.610346
H -0.843322 -6.279392 -3.945419
C -1.521333 -5.646901 6.610346
H 7.347919 7.065214 3.335302
N -6.252559 1.352429 0.766788
H -5.237219 -1.027798 2.681499
N -1.352429 -6.252559 -0.766788
H -1.027798 5.237219 -2.681499
H 1.027798 -5.237219 -2.681499
C 1.200296 5.733149 7.991770
C -1.200296 -5.733149 7.991770
H 5.237219 1.027798 2.681499
H -4.822745 -2.266427 -2.479633
H 4.822745 2.266427 -2.479633
H 2.266427 -4.822745 2.479633
H -2.266427 4.822745 2.479633
N -3.874009 -7.915723 -6.495856
H -5.536694 -1.159567 -4.579638
H 5.536694 1.159567 -4.579638
N -9.132790 -9.743719 3.018946
C 4.492125 7.712559 2.866793
H -7.697705 3.514639 -5.881220
N -6.698657 0.483952 -8.445215
C 8.804565 -3.361307 5.701951
C 5.367311 8.056836 1.828842
H -8.435612 5.481590 -4.618806
N -3.372089 -4.467448 0.778840
N 3.372088 4.467448 0.778840
N -4.467448 3.372088 -0.778840
C 3.361307 8.804565 -5.701951
N 4.467448 -3.372089 -0.778840
C 8.605714 -3.066624 4.359695
C 7.582707 -0.011979 -7.649804
C 7.388647 -3.318183 3.791760
H -3.174435 -9.662261 -6.066514
C 3.066624 8.605714 -4.359695
C 7.573124 -0.285100 -6.236744
C 6.571679 -1.087693 -5.750158
H -2.695275 -9.307683 -3.841473
C 3.318183 7.388647 -3.791760
C 6.461473 -3.876404 4.585664
C 6.804072 -4.132755 5.952023
H -4.099214 -5.598985 -4.249724
C 1.475813 6.542930 4.302450
C 3.876404 6.461473 -4.585664
H 4.099214 5.598985 -4.249724
H -6.279392 0.843322 3.945419
H -4.530458 -6.135644 -6.498868
C 2.722348 7.050360 3.983080
C 4.132755 6.804072 -5.952023
H -5.232427 -5.117429 0.790891
H 5.232427 5.117429 0.790891
H 5.117429 -5.232427 -0.790892
H -5.117429 5.232427 -0.790892
C 3.644012 7.623436 4.944202
H 9.377161 8.035513 3.921315
C 10.392980 -8.275093 -2.277768
H -6.284183 -3.119332 0.351005
N -7.915723 3.874009 6.495856
H 3.119332 -6.284183 -0.351005
C 4.707747 8.018743 4.255749
C 9.906633 -7.070006 -1.860478
H -2.690483 -1.353627 0.289240
H 2.690483 1.353627 0.289240
H 1.159567 -5.536694 4.579638
H -1.353627 2.690483 -0.289240
H -1.159567 5.536694 4.579638
H 1.353627 -2.690483 -0.289240
C 8.616016 -6.692667 -2.231067
H -1.736955 -3.392453 0.683933
H 1.736955 3.392453 0.683933
H -3.514639 -7.697705 5.881220
H -3.392453 1.736955 -0.683933
N -0.483952 -6.698657 8.445215
H 3.392453 -1.736955 -0.683933
C 7.939681 -7.563541 -3.024972
H -8.272697 -0.536659 -8.005328
Zn 6.386963 -2.448747 -0.976337
H -5.481590 -8.435612 4.618806
C 8.536235 -8.775815 -3.382003
H -8.236760 -0.076666 -5.661277
H -9.662261 3.174435 6.066514
N 7.112411 -3.275059 -2.726693
H 8.679983 -6.816051 0.534793
H -9.307683 2.695275 3.841473
H -4.923369 2.050805 -6.295496
H 8.253531 -5.603776 2.645344
H 4.923369 -2.050805 -6.295496
H -5.598985 4.099214 4.249724
H -5.067117 1.518937 -8.588328
N 7.448303 -3.902039 0.046700
H 5.598985 -4.099214 4.249724
H 5.067117 -1.518937 -8.588328
H -6.135644 4.530458 6.498868
N 6.252559 -1.352429 0.766788
H -8.507486 -11.274635 2.009618
H -6.495014 -10.440896 1.324178
C -10.392980 8.275093 -2.277768
N 9.743719 -9.132790 -3.018946
H -7.347919 -7.065214 3.335302
C -9.906633 7.070006 -1.860478
H 7.697705 -3.514639 -5.881220
N 6.698657 -0.483952 -8.445215
C -7.935608 5.077898 -0.467003
C -8.616016 6.692667 -2.231067
C -5.077898 -7.935608 0.467003
H 8.435612 -5.481590 -4.618806
C -8.323009 5.939188 0.616142
C -7.939681 7.563541 -3.024972
C -5.939188 -8.323009 -0.616142
H 0.536659 -8.272697 8.005328
C -8.087502 5.277947 1.768584
C -8.536235 8.775815 -3.382003
C -5.277947 -8.087502 -1.768584
Zn 2.448747 6.386963 0.976337
C 0.011979 7.582707 7.649804
H 0.076666 -8.236760 5.661277
C -7.536708 3.993319 1.425111
H -8.679983 6.816051 0.534793
C -3.993319 -7.536708 -1.425111
N 3.275059 7.112411 2.726693
C 0.285100 7.573124 6.236744
H 2.050805 4.923369 6.295496
H -2.050805 -4.923369 6.295496
C -7.144036 3.051051 2.342545
H 6.279392 -0.843322 3.945419
C -3.051051 -7.144036 -2.342545
C 1.087693 6.571679 5.750158
H 5.603776 8.253531 -2.645344
H 1.518937 5.067117 8.588328
H -1.518937 -5.067117 8.588328
C -6.549878 1.785350 2.036734
C -1.785350 -6.549878 -2.036734
N 3.902039 7.448303 -0.046700
H 0.843322 6.279392 -3.945419
C -6.163914 0.793010 3.005388
H 6.284183 3.119332 0.351005
C -0.793010 -6.163914 -3.005388
N 1.352429 6.252559 -0.766788
N 7.915723 -3.874009 6.495856
C -5.602339 -0.232632 2.313923
C 5.602339 0.232632 2.313923
C 0.232632 -5.602339 -2.313923
C -0.232632 5.602339 -2.313923
N 3.874009 7.915723 -6.495856
C -5.665588 0.113082 0.917434
N -9.743719 9.132790 -3.018946
C -0.113082 -5.665588 -0.917434
C 0.113082 5.665588 -0.917434
C 5.665588 -0.113082 0.917434
H -9.377161 -8.035513 3.921315
C -5.251354 -0.700772 -0.132568
C 5.251354 0.700771 -0.132568
C 0.700771 -5.251354 0.132568
C -0.700772 5.251354 0.132568
H 8.272697 0.536659 -8.005328
C -5.437987 -0.456160 -1.503447
C 5.437987 0.456160 -1.503447
C 0.456160 -5.437987 1.503447
C -0.456160 5.437987 1.503447
H 8.236760 0.076666 -5.661277
H 9.662261 -3.174435 6.066514
C -5.186907 -1.391960 -2.563995
C 5.186907 1.391960 -2.563995
C 1.391960 -5.186907 2.563995
C -1.391960 5.186907 2.563995
H 3.174435 9.662261 -6.066514
H 9.307683 -2.695275 3.841473
C -5.572631 -0.783427 -3.708905
C 5.572631 0.783427 -3.708905
C 0.783427 -5.572631 3.708905
C -0.783427 5.572631 3.708905
H 2.695275 9.307683 -3.841473
C -6.038374 0.521805 -3.385016
H 6.135644 -4.530458 6.498868
C -0.521805 -6.038374 3.385016
H 11.274635 -8.507486 -2.009618
C -6.542930 1.475813 -4.302450
H 10.440896 -6.495014 -1.324178
H 4.530458 6.135644 -6.498868
C -7.050360 2.722348 -3.983080
H 7.065214 -7.347919 -3.335302
C 8.275093 10.392980 2.277768
C -7.623436 3.644012 -4.944202
H 8.035513 -9.377161 -3.921315
H -3.119332 6.284183 -0.351005
C 7.070006 9.906633 1.860478
C -8.018743 4.707747 -4.255750
C 7.935608 -5.077898 -0.467003
C 6.692667 8.616016 2.231067
C -7.712559 4.492125 -2.866793
C 8.323009 -5.939188 0.616142
C -4.492125 -7.712559 2.866793
H 3.514639 7.697705 5.881220
N 0.483952 6.698657 8.445215
C 7.563541 7.939681 3.024972
C -8.056836 5.367311 -1.828842
C 8.087502 -5.277947 1.768584
C -5.367311 -8.056836 1.828842
H 5.481590 8.435612 4.618806
C 8.775815 8.536235 3.382003
C 7.536708 -3.993319 1.425111
C -3.361307 -8.804565 -5.701951
H 6.816051 8.679983 -0.534793
C 7.144036 -3.051051 2.342545
C -3.066624 -8.605714 -4.359695
C 6.549878 -1.785350 2.036734
C -3.318183 -7.388647 -3.791760
H -11.274635 8.507486 -2.009618
C 6.163914 -0.793010 3.005388
C -1.475813 -6.542930 4.302450
C -3.876404 -6.461473 -4.585664
H -10.440896 6.495014 -1.324178
C -2.722348 -7.050360 3.983080
C -4.132755 -6.804072 -5.952023
C -4.698164 -4.339513 0.673388
H -7.065214 7.347919 -3.335302
C 4.698164 4.339513 0.673388
C -4.339513 4.698164 -0.673388
C -3.644012 -7.623436 4.944202
C 4.339513 -4.698164 -0.673388
N 9.132790 9.743719 3.018946
C -5.337124 -3.149040 0.403731
H -8.035513 9.377161 -3.921315
C 5.337124 3.149040 0.403731
C -3.149040 5.337124 -0.403731
C -4.707747 -8.018743 4.255749
C 3.149040 -5.337124 -0.403731
C -4.610478 -2.017264 0.212411
C 4.610478 2.017264 0.212411
C 2.017264 -4.610478 -0.212411
C -2.017264 4.610478 -0.212411
C 5.077898 7.935608 0.467003
C -3.241517 -2.122679 0.363057
C 3.241517 2.122679 0.363057
C 2.122679 -3.241517 -0.363057
C -2.122679 3.241517 -0.363057
C 5.939188 8.323009 -0.616142
H -0.536659 8.272697 8.005328
C -2.683296 -3.344537 0.617649
C -8.804565 3.361307 5.701951
C 2.683296 3.344537 0.617649
C -3.344537 2.683296 -0.617649
C 5.277947 8.087502 -1.768584
H -0.076666 8.236760 5.661277
C 3.344537 -2.683296 -0.617649
C -8.605714 3.066624 4.359695
C -7.582707 0.011979 -7.649804
C 6.038374 -0.521805 -3.385016
C 3.993319 7.536708 -1.425111
C -7.388647 3.318183 3.791760
C -7.573124 0.285100 -6.236744
C 6.542930 -1.475813 -4.302450
C 3.051051 7.144036 -2.342545
C -6.571679 1.087693 -5.750158
C -6.461473 3.876404 4.585664
C 7.050360 -2.722348 -3.983080
C 1.785350 6.549878 -2.036734
C -5.646901 1.521333 -6.610346
C -6.804072 4.132755 5.952023
C 7.623436 -3.644012 -4.944202
C 0.793010 6.163914 -3.005388
C 5.646901 -1.521333 -6.610346
C -5.733149 1.200296 -7.991770
C 8.018743 -4.707747 -4.255750
C 5.733149 -1.200296 -7.991770
C 7.712559 -4.492125 -2.866793
C -8.275093 -10.392980 2.277768
C 8.056836 -5.367311 -1.828842
C -7.070006 -9.906633 1.860478
C -6.692667 -8.616016 2.231067
C -7.563541 -7.939681 3.024972