86
In1 H44 C36 N4 Cl1
In 0.016844 -0.705991 -0.007671
H -4.378690 -0.200933 -0.067413
H 0.047603 -0.149262 -4.408072
H -0.044134 -0.003817 4.361448
H -3.650193 -0.153089 5.186549
H -2.081227 -0.380825 5.403530
H -2.726081 1.663060 6.386502
H -1.714280 1.957777 5.182249
C 5.001381 -0.112900 2.764132
H -3.285945 2.181686 4.979440
H -5.432312 -0.616217 2.043072
C 5.601716 1.228638 3.077304
H -5.242094 -0.225812 3.581723
N 1.456030 -0.119599 1.467269
H -6.562831 1.395135 2.505395
H -5.193527 2.068775 2.990600
N 1.487058 -0.177394 -1.479395
H -5.390491 1.674542 1.451484
H -5.180036 -0.267914 -3.701539
H -5.421520 -0.489909 -2.136069
H -6.386103 1.552062 -2.813380
H -5.208367 1.841038 -1.769494
H -4.964185 2.064947 -3.335389
H -2.025915 -0.463117 -5.504716
H -3.565202 -0.074625 -5.294122
H -2.419843 1.670715 -6.427786
H -2.966216 2.202737 -5.020449
H -1.420183 1.825728 -5.187813
H 4.380809 0.019148 0.030166
H 2.485369 1.655405 6.459968
C -1.285277 -0.051660 2.796023
C -2.568240 0.035415 3.453448
C -3.527428 -0.024868 2.488136
C -2.829960 -0.132038 1.209718
C -3.428946 -0.174140 -0.058292
C -2.805676 -0.179882 -1.303628
C -3.466720 -0.066970 -2.590875
C -2.485947 -0.044005 -3.550435
C -1.217823 -0.166485 -2.849190
C 0.042206 -0.137779 -3.457178
H 3.667152 0.047855 -5.210862
H 2.131913 -0.340637 -5.428577
H 2.583851 1.777885 -6.402519
H 1.514040 1.946295 -5.224251
H 3.043883 2.342441 -4.978192
H 5.508630 0.001925 -2.003427
H 5.275242 0.304297 -3.558184
H 6.172372 2.214220 -2.421183
C -0.034691 -0.028695 3.412971
H 4.753152 2.552953 -3.080279
C -2.751714 0.179903 4.939513
H 4.858380 2.267805 -1.508372
C -2.606014 1.624785 5.414475
H 2.005100 -0.396135 5.446646
C -5.012752 0.038286 2.655093
H 3.561925 -0.080367 5.254671
C -5.591502 1.416186 2.376703
C -4.946648 0.068906 -2.800509
H 3.097846 2.219961 5.094141
C -5.418821 1.509960 -2.668030
H 1.528879 1.929071 5.207079
C -2.638392 0.153111 -5.029364
C -2.333503 1.592251 -5.454697
H 5.410148 -0.480340 1.940572
H 5.179458 -0.742524 3.507395
H 6.577092 1.148261 3.125152
H 5.361582 1.865917 2.374373
H 5.257704 1.548235 3.938006
N -1.474146 -0.147157 1.434337
N -1.448514 -0.254135 -1.511477
Cl 0.031549 -3.119784 0.027280
C 1.298189 -0.099504 -2.830389
C 2.573058 0.114836 -3.486539
C 3.512010 0.181817 -2.493597
C 2.828032 -0.001903 -1.235635
C 3.432415 -0.007644 0.022359
C 2.813192 -0.049747 1.271640
C 3.475585 0.045941 2.566312
C 2.494812 0.066992 3.506015
C 1.234783 -0.036350 2.820295
C 2.738994 0.285160 -4.960674
C 2.443548 1.718558 -5.434940
C 4.973050 0.533947 -2.644507
C 5.210486 2.026672 -2.390206
C 2.649955 0.206696 4.996737
C 2.420613 1.628612 5.483476