292
Zn4 H96 C160 N32
H 5.785158 -4.210388 -4.188698
C -6.089032 0.392278 3.350058
H 5.450401 -1.258873 8.623437
H -5.785158 4.210388 -4.188698
H -5.450401 1.258873 8.623437
C -3.913115 -7.557245 1.414736
C 0.313540 -7.836131 -7.442740
H 5.155721 -1.855305 6.415069
C -6.647509 1.292584 4.275712
H -5.155721 1.855305 6.415069
C -2.916153 -7.202686 2.335889
C -0.919402 -6.056263 -7.973829
C -7.116404 2.572203 3.978663
C -1.678497 -6.621342 2.037339
H 7.263273 6.787070 -3.162527
C -7.668281 3.491840 4.943324
C -0.670692 -6.254288 3.008001
C -7.997615 4.610681 4.271212
H 8.524503 11.089398 -2.268378
C -7.686905 4.399926 2.869978
H 6.445241 10.382166 -1.582764
C -7.984178 5.287738 1.839306
H 2.265500 9.255309 3.891648
C -7.912747 4.996830 0.471078
H 2.715771 9.667861 6.131522
C -8.282865 5.873090 -0.604601
H 4.580506 6.237786 6.406067
C -8.073761 5.201456 -1.765794
H -4.210388 -5.785158 4.188698
C 1.292584 6.647509 -4.275713
H 2.673337 1.294235 -0.676613
H -2.673337 -1.294235 -0.676613
C -7.557245 3.913115 -1.414736
H 4.210388 5.785158 4.188698
H 1.294235 -2.673337 0.676613
H -1.294235 2.673337 0.676613
H 1.666710 3.349922 -1.072679
H -1.666710 -3.349922 -1.072679
C -7.202686 2.916153 -2.335889
C 2.572203 7.116404 -3.978663
H 3.349922 -1.666710 1.072679
H -3.349922 1.666710 1.072679
C 8.473111 -6.630771 2.250375
H -5.061424 -5.200513 -0.573096
C -6.621342 1.678497 -2.037340
H 5.061424 5.200513 -0.573096
C 3.491840 7.668281 -4.943324
H 5.200513 -5.061424 0.573095
H -5.200513 5.061424 0.573095
C 7.679125 -7.498309 2.940490
C -6.254288 0.670692 -3.008001
H 6.143489 3.220263 -0.111019
C 4.610681 7.997615 -4.271212
H -3.220263 6.143489 0.111018
C 5.390287 0.521937 1.485247
C -5.390287 -0.521937 1.485247
C 8.199176 -8.741623 3.315552
H -9.340177 -7.621604 -3.773129
C -0.521937 5.390287 -1.485248
C 10.191449 -8.274143 2.446908
C 5.070382 1.430259 2.545924
H -6.758780 -8.614086 0.520587
C 0.521937 -5.390287 -1.485248
C -5.070382 -1.430259 2.545924
N -9.139795 -9.427403 -3.083014
C 1.430259 -5.070382 -2.545924
C 5.507923 0.866595 3.699616
C 9.774889 -7.027529 2.025337
C -5.507923 -0.866595 3.699616
C -1.430259 5.070382 -2.545924
C 0.866595 -5.507923 -3.699617
C -0.866595 5.507923 -3.699617
C 6.089032 -0.392278 3.350058
C -6.761609 0.860466 5.691948
C -3.197160 -7.478507 3.785131
C 0.392278 6.089032 -3.350058
C 6.647509 -1.292584 4.275712
C -7.478507 3.197160 -3.785131
C -7.741833 0.037719 6.118019
C -2.755847 -8.616443 4.392732
C 7.116404 -2.572203 3.978663
C -8.616443 2.755847 -4.392732
C -7.836131 -0.313540 7.442740
C -3.015166 -8.854545 5.739956
C 7.668281 -3.491840 4.943324
C -8.854545 3.015166 -5.739957
C -6.056263 0.919402 7.973829
H -3.338135 -7.777195 -5.874979
C -4.099588 -6.869580 5.885481
C 7.997615 -4.610681 4.271212
C -6.869580 4.099588 -5.885481
C -0.037719 -7.741833 -6.118020
H -5.400895 -8.368912 -4.649275
C -3.882704 -6.593760 4.565261
C 7.686905 -4.399926 2.869978
C -6.593760 3.882704 -4.565261
C -8.473111 6.630771 2.250375
H -7.263273 -6.787070 -3.162527
C -5.201456 -8.073761 1.765794
N -0.108442 -7.025171 -8.377396
C 7.984178 -5.287738 1.839306
C -7.679125 7.498309 2.940490
C 4.399926 7.686905 -2.869978
C 5.287738 7.984178 -1.839307
C 7.912747 -4.996830 0.471078
C -8.199176 8.741623 3.315552
H -8.524503 -11.089398 -2.268378
C 4.996830 7.912747 -0.471079
C 8.282865 -5.873090 -0.604601
C -10.191449 8.274143 2.446908
H 8.538648 0.902900 7.696282
H -6.445241 -10.382166 -1.582764
C 0.860466 6.761609 -5.691949
C 8.073761 -5.201456 -1.765794
C -9.774889 7.027529 2.025337
C 5.873090 8.282865 0.604601
Zn -2.335728 -6.406579 -0.974712
H 0.301752 -8.373627 -5.495416
C 7.557245 -3.913115 -1.414736
C 5.201456 8.073761 1.765794
C 0.037719 7.741833 -6.118020
N -0.595961 -5.991905 -2.002834
H 0.902900 -8.538648 -7.696283
C 7.202686 -2.916153 -2.335889
C 3.913115 7.557245 1.414736
C -0.313540 7.836131 -7.442740
N -3.138224 -7.136678 -2.730455
C 2.916153 7.202686 2.335889
C 6.621342 -1.678497 -2.037340
C 0.919402 6.056263 -7.973829
N -3.803022 -7.457290 0.054009
C -1.294235 -5.884170 -6.656609
C 6.254288 -0.670692 -3.008001
C 1.678497 6.621342 2.037339
C 1.294235 5.884170 -6.656609
N -1.262409 -6.272676 0.786581
C 0.670692 6.254288 3.008001
C 5.642297 0.329570 -2.322387
C -5.642297 -0.329570 -2.322387
H 8.614086 -6.758780 -0.520587
C 0.329570 -5.642297 2.322387
C -0.329570 5.642297 2.322387
C 5.681195 -0.030882 -0.933156
C -5.681195 0.030882 -0.933156
N 9.427403 -9.139795 3.083014
H -5.523482 -8.239253 2.643440
C -0.030882 -5.681195 0.933155
C 5.209942 0.753674 0.112519
C -5.209942 -0.753674 0.112519
C 0.030882 5.681195 0.933155
C 0.753674 -5.209942 -0.112519
H -0.702517 -6.412237 3.945657
N -3.662755 -7.996436 6.485581
H -6.412237 0.702517 -3.945658
C 6.761609 -0.860466 5.691948
C -0.753674 5.209942 -0.112519
N -7.996436 3.662755 -6.485581
C 7.478507 -3.197160 -3.785131
C 7.741833 -0.037719 6.118019
C 8.616443 -2.755847 -4.392732
Zn -6.406579 2.335728 0.974712
C 7.836131 0.313540 7.442740
C 8.854545 -3.015166 -5.739957
N -5.991905 0.595961 2.002834
C 6.056263 -0.919402 7.973829
C 5.884170 -1.294235 6.656609
N -7.136678 3.138224 2.730455
C -5.884170 1.294235 6.656609
C 6.869580 -4.099588 -5.885481
C 6.593760 -3.882704 -4.565261
N -7.457290 3.803022 -0.054009
H -7.777195 3.338135 5.874979
H 6.787070 -7.263273 3.162527
C 6.630771 8.473111 -2.250375
H 7.621604 -9.340177 3.773129
N -6.272676 1.262409 -0.786581
H -8.368912 5.400895 4.649275
C 7.498309 7.679125 -2.940490
H 11.089398 -8.524503 2.268378
H -8.614086 6.758780 -0.520587
N -7.025171 0.108442 8.377396
C 8.741623 8.199176 -3.315553
H 10.382166 -6.445241 1.582764
H -8.239253 5.523482 -2.643441
N -9.427403 9.139795 3.083014
C 8.274143 10.191449 -2.446908
H -2.265500 -9.255309 3.891648
C 7.027529 9.774889 -2.025338
H -9.255309 2.265500 -3.891649
H -2.715771 -9.667861 6.131522
C 3.197160 7.478507 3.785131
H -8.373627 -0.301752 5.495416
H -9.667861 2.715771 -6.131522
H -4.580506 -6.237786 6.406067
C 2.755847 8.616443 4.392732
H -8.538648 -0.902900 7.696282
H -6.237786 4.580506 -6.406068
C -1.292584 -6.647509 -4.275713
H 1.237656 -5.440972 -4.571262
H -1.237656 5.440972 -4.571262
C 3.015166 8.854545 5.739956
C -2.572203 -7.116404 -3.978663
H 3.338135 7.777195 -5.874979
C 4.099588 6.869580 5.885481
C -3.491840 -7.668281 -4.943324
C 3.882704 6.593760 4.565261
C 4.523456 2.049794 -0.265544
C -4.523456 -2.049794 -0.265544
H -6.787070 7.263273 3.162527
H 5.400895 8.368912 -4.649275
C -4.610681 -7.997615 -4.271212
C 2.049794 -4.523456 0.265544
C -2.049794 4.523456 0.265544
C -3.181601 -2.094585 -0.612102
C 3.181601 2.094585 -0.612102
H -7.621604 9.340177 3.773129
N 0.108442 7.025171 -8.377396
C 2.094585 -3.181601 0.612102
H 3.220263 -6.143489 0.111018
C -2.094585 3.181601 0.612102
C -2.592477 -3.328941 -0.865644
H 6.412237 -0.702517 -3.945658
C 2.592477 3.328941 -0.865644
N 7.996436 -3.662755 -6.485581
H -11.089398 8.524503 2.268378
C 3.328941 -2.592477 0.865644
C -3.328941 2.592477 0.865644
C 4.554338 4.398747 -0.568595
C -4.554338 -4.398747 -0.568595
H -10.382166 6.445241 1.582764
C 4.398747 -4.554338 0.568595
C -4.398747 4.554338 0.568595
Zn 6.406579 -2.335728 0.974712
C -5.211121 -3.214841 -0.288048
C 5.211121 3.214841 -0.288048
C 3.214841 -5.211121 0.288048
C -3.214841 5.211121 0.288048
N 5.991905 -0.595961 2.002834
H -4.634727 -2.270215 2.457409
H 4.634727 2.270215 2.457409
Zn 2.335728 6.406579 -0.974712
H -0.301752 8.373627 -5.495416
C -0.392278 -6.089032 -3.350058
H 2.270215 -4.634727 -2.457410
N 7.136678 -3.138224 2.730455
H -5.440972 -1.237656 4.571262
H 5.440972 1.237656 4.571262
N 0.595961 5.991905 -2.002834
H -2.270215 4.634727 -2.457410
H -0.902900 8.538648 -7.696283
H -1.258873 -5.450401 -8.623437
N 3.138224 7.136678 -2.730455
N 7.457290 -3.803022 -0.054009
H 7.777195 -3.338135 5.874979
H 1.258873 5.450401 -8.623437
H -1.855305 -5.155721 -6.415069
N 3.803022 7.457290 0.054009
N 6.272676 -1.262409 -0.786581
H 8.368912 -5.400895 4.649275
H 1.855305 5.155721 -6.415069
N 1.262409 6.272676 0.786581
N 7.025171 -0.108442 8.377396
H 6.758780 8.614086 0.520587
H 8.239253 -5.523482 -2.643441
H 9.340177 7.621604 -3.773129
C -6.630771 -8.473111 -2.250375
C -4.399926 -7.686905 -2.869978
H 5.523482 8.239253 2.643440
H -6.143489 -3.220263 -0.111019
N 9.139795 9.427403 -3.083014
C -7.498309 -7.679125 -2.940490
N 3.662755 7.996436 6.485581
C -5.287738 -7.984178 -1.839307
H 5.261806 1.117427 -2.692949
N -3.257039 -4.480079 -0.832189
H -5.261806 -1.117427 -2.692949
H 9.255309 -2.265500 -3.891649
N 3.257039 4.480079 -0.832189
H 0.702517 6.412237 3.945657
C -8.741623 -8.199176 -3.315553
C -4.996830 -7.912747 -0.471079
H 1.117427 -5.261806 2.692949
N 4.480079 -3.257039 0.832189
N -4.480079 3.257039 0.832189
H 8.373627 0.301752 5.495416
H 9.667861 -2.715771 -6.131522
H -1.117427 5.261806 2.692949
C -8.274143 -10.191449 -2.446908
H 6.237786 -4.580506 -6.406068
C -5.873090 -8.282865 0.604601
C -0.860466 -6.761609 -5.691949
C -7.027529 -9.774889 -2.025338