12
H6 C6
C 0.149380 -0.229982 1.320569
C -1.065667 -0.294605 0.814787
H -1.811233 -0.488475 1.370440
C -1.236387 -0.076027 -0.520831
H 0.281421 -0.397242 2.245817
H -2.103324 -0.134948 -0.902724
C 1.065667 0.294605 -0.814787
C 1.236387 0.076027 0.520831
H 1.811233 0.488475 -1.370440
H 2.103324 0.134948 0.902724
C -0.149380 0.229982 -1.320569
H -0.281421 0.397242 -2.245817