85
Cu1 H29 C47 N5 O3
Cu 0.145738 0.002959 0.354943
H 0.120829 -9.618324 0.464315
H 2.143857 9.184169 -0.842644
H 3.314973 -2.782474 3.264437
H -3.657303 -2.399667 -2.066320
H -2.621195 -4.163316 -0.708301
H 3.440562 2.541676 3.332207
H 1.774416 -4.440656 2.249529
H 2.331194 4.293607 2.019246
H -1.233438 4.408840 -1.877462
H -2.630614 2.717455 -3.010499
H 0.211881 -5.288302 -1.069969
C 4.606446 -0.560628 5.908814
C 5.827798 0.017490 5.613568
H 0.252697 -7.598819 -0.846805
H -1.136106 -7.253120 2.900877
H 6.868092 0.920603 4.129082
H -1.139246 -4.944556 2.678619
H 5.220785 0.750684 2.531478
H 2.375150 4.850241 -1.009829
H 2.638886 7.156852 -1.175799
H -0.686080 7.756453 0.903625
H -1.000052 5.436171 1.060032
H -4.983313 0.770215 -2.003624
H -6.467355 0.842479 -3.792590
H -6.948779 0.348345 -6.226678
H -6.151290 -0.257116 -8.266394
H -3.882317 -0.757110 -8.560264
H -2.446417 -0.807890 -6.743388
C -2.113607 -1.104371 -1.342966
C -2.884932 -2.306113 -1.521394
C -2.323968 -3.263718 -0.781946
C -1.192621 -2.689311 -0.120382
C -0.301987 -3.374849 0.678222
C 0.781217 -2.783646 1.380541
C 1.733600 -3.497504 2.143852
C 2.576092 -2.595953 2.697480
O 6.842975 0.138387 6.524492
C 2.138624 -1.301829 2.259022
C 2.713193 -0.109462 2.670580
C 2.278865 1.157124 2.162384
C 2.795873 2.413748 2.645643
C 2.186766 3.357877 1.935045
C 1.277294 2.731908 1.022887
C 0.476664 3.396939 0.106490
C -0.426529 2.792454 -0.743380
C -1.235531 3.474477 -1.704397
C -2.000577 2.555348 -2.319623
C -1.683465 1.271771 -1.728054
C -2.348039 0.091122 -1.995815
C -0.422343 -4.875416 0.802822
C -0.043483 -5.683414 -0.245625
C -0.029878 -7.057810 -0.118289
C 3.805817 -0.117079 3.660892
C -0.422343 -7.643350 1.055655
C 3.622666 -0.626838 4.919276
C -0.843066 -6.855274 2.090284
C -0.842019 -5.482049 1.954876
C 6.038159 0.514944 4.348876
C 5.043914 0.423735 3.404759
C 0.635744 4.906295 0.012498
C 1.726274 5.428358 -0.625914
C 1.884307 6.807442 -0.715457
C 0.996812 7.664462 -0.167370
C -0.062321 7.166812 0.496443
C -0.248612 5.777572 0.588910
C -3.376822 0.115340 -3.104880
C -4.698645 0.522171 -2.873876
C -5.572534 0.553421 -3.931001
C -5.173789 0.172566 -5.184581
C -6.029887 0.125692 -6.323590
C -5.562068 -0.223913 -7.522038
C -4.208848 -0.544222 -7.693178
C -3.353797 -0.552034 -6.625853
C -3.820569 -0.176258 -5.347262
N -1.106802 -1.345383 -0.440006
N 1.035535 -1.429952 1.435691
N 1.346367 1.359465 1.201145
N -0.714337 1.437394 -0.759581
N -2.940400 -0.181922 -4.298966
O -0.389899 -9.017160 1.218534
O 1.156938 9.020500 -0.288681
H 6.378296 -0.089149 7.265963
H 4.437947 -0.909451 6.775960
H 2.793779 -1.042262 5.128043