125
Sn1 H54 C64 N4 O2
Sn -0.000000 0.000000 -0.000000
C 6.094700 -4.807391 -0.616898
C -4.679465 0.850952 -3.984349
C 4.074217 0.216782 3.069925
H 6.657730 -3.895611 1.106879
C -6.094700 4.807391 0.616898
C 5.082964 3.387629 1.202587
H -6.657730 3.895611 -1.106879
C 5.957211 -3.950616 0.469175
C -5.082964 -3.387629 -1.202587
H -5.096040 5.422794 2.276176
C -2.193091 -2.827877 4.605408
H 2.127709 -4.468305 1.531322
C -5.957211 3.950616 -0.469175
H -3.943454 -5.853124 6.606945
H -2.127709 4.468305 -1.531322
C 1.586908 -2.597829 0.677235
C 4.287175 2.216357 1.747704
H 4.124654 0.944783 -2.980459
C -1.586908 2.597829 -0.677235
N 0.453376 -1.854298 0.893618
H -4.972749 -6.199328 5.431406
N -0.453376 1.854298 -0.893618
C -3.239199 -3.895611 2.772399
H 4.750451 -2.611095 1.413768
C 0.367259 2.501086 -1.808041
N 1.811448 -0.083154 -1.046542
H -5.258561 -4.966581 6.410329
H -4.750451 2.611095 -1.413768
C 1.483232 -3.772660 1.481387
N -1.811448 0.083154 1.046542
H -7.675817 5.451914 1.741462
C -2.901082 -3.652944 5.461575
H 2.542416 2.766402 0.786467
C -1.483232 3.772660 -1.481387
O 0.835766 0.988139 1.575014
C -7.341436 5.603986 0.832240
H -2.542416 -2.766402 -0.786467
C 3.569844 0.469156 -2.375005
O -0.835766 -0.988139 -1.575014
C 4.679465 -0.850952 3.984349
H 4.655181 -1.242454 -1.922474
C 2.265945 0.889778 -1.906870
H 5.096040 -5.422794 -2.276176
C 4.823305 -3.170846 0.648107
C -4.561778 -5.474563 5.947395
C -4.823305 3.170846 -0.648107
H 0.009340 4.390652 -2.770319
C 2.921630 2.122526 1.369035
H 8.023275 -5.328963 -0.185173
C -2.921630 -2.122526 -1.369035
H -4.124654 -0.944783 2.980460
C -0.367259 -2.501086 1.808041
H -8.023275 5.328963 0.185173
C 3.861259 -0.734472 -1.794517
H 7.675817 -5.451914 -1.741462
H 7.145291 -6.558475 -0.712606
C -2.138917 -1.058027 -1.868379
C -3.569844 -0.469156 2.375005
H 3.216782 -4.122100 -1.997376
C 1.619973 2.066874 -2.259532
H -4.655181 1.242454 1.922474
C 2.743045 -1.093618 -0.953955
C -2.265945 -0.889778 1.906870
C -2.743045 1.093618 0.953955
H 4.539362 5.364554 -3.311275
C 5.038318 -4.843953 -1.524039
H -0.009340 -4.390652 2.770319
H 3.943454 5.853124 -6.606945
C -5.038318 4.843953 1.524040
H -2.209903 0.605049 -3.012709
H 4.972749 6.199328 -5.431406
C -0.308228 3.730598 -2.165905
H -5.753594 -1.333050 -2.821294
C -3.861259 0.734472 1.794518
C 2.346271 2.963771 -3.230131
C 2.138917 1.058027 1.868379
H 1.604655 2.171059 -4.957029
C 7.341437 -5.603986 -0.832240
C -1.619973 -2.066874 2.259532
H 3.379302 3.989442 -1.837170
C 3.921037 -4.067096 -1.360712
C -3.921037 4.067096 1.360712
H -3.216782 4.122100 1.997376
H 2.751638 3.588233 -6.397845
C 2.638807 -2.271361 -0.182052
H -4.539362 -5.364554 3.311275
C -2.638807 2.271361 0.182052
C 4.561778 5.474563 -5.947395
H -4.780340 0.488569 -4.888370
H 2.209903 -0.605049 3.012709
C 3.945322 4.704501 -3.647292
C 0.308228 -3.730598 2.165905
H -5.555581 1.119503 -3.638969
H 5.753594 1.333050 2.821294
C 3.792141 4.542723 -4.999682
C -2.346271 -2.963771 3.230132
H -4.083557 1.630721 -4.010356
H -1.604655 -2.171059 4.957030
H 4.759791 4.219167 1.608304
C -2.731089 -0.122951 -2.692296
H -4.759791 -4.219167 -1.608304
H -3.379302 -3.989442 1.837170
H 4.974617 3.432927 0.229906
C -4.838250 -1.268339 -2.578904
H -4.974617 -3.432927 -0.229906
H -2.751638 -3.588233 6.397845
H 6.031933 3.264678 1.418969
C -4.074217 -0.216782 -3.069925
H -6.031933 -3.264678 -1.418969
H 4.780340 -0.488569 4.888370
C 2.193091 2.827877 -4.605408
C -3.945322 -4.704501 3.647292
H 5.555581 -1.119503 3.638969
C -4.287175 -2.216357 -1.747704
C -3.792141 -4.542723 4.999682
H 4.083557 -1.630721 4.010356
C 3.239199 3.895611 -2.772399
C 2.731089 0.122951 2.692296
H 5.258561 4.966581 -6.410329
C 3.794570 -3.201584 -0.281921
C 2.901082 3.652944 -5.461575
C 4.838250 1.268339 2.578904
H -7.145291 6.558475 0.712606
C -3.794570 3.201584 0.281921