133
Dy1 H44 C76 N12
Dy 0.004549 0.035007 -0.134083
H 4.667526 6.188146 4.414781
H -4.382745 -2.739766 1.324313
H 4.579348 6.170055 2.107530
H -4.881598 -0.496481 2.146971
H 3.424110 4.521189 0.998933
C 2.800967 3.511969 2.646834
H 2.451107 -4.806017 0.251886
C 2.869988 3.539106 4.025321
H 0.083004 -5.391391 0.320149
H -3.067976 1.564601 4.763684
H -4.993983 2.420048 1.369306
H 2.440087 2.876199 4.516258
H 4.083255 4.354493 -2.035823
H 3.859150 6.645590 -1.717198
H -2.179620 -5.185928 -1.067420
H -3.241935 -7.225043 -0.745459
H -4.102327 -7.783280 1.309708
H -3.888937 -6.338584 3.062814
H -2.849632 -4.312391 2.770840
C 2.208477 3.917724 -1.423792
C 3.287571 4.716313 -1.718468
C 3.146963 6.078308 -1.524948
C 1.946407 6.617161 -1.041578
C 0.851978 5.815988 -0.801717
C 0.998982 4.463039 -1.014220
C 0.055039 3.345273 -0.913727
H -7.255344 2.610003 -1.185121
H -5.981911 0.694941 -1.452376
H -4.704858 -2.888371 -2.917646
C -4.325596 4.017225 -0.894344
H -4.595474 -4.874505 -4.106647
C -5.712000 3.906095 -0.969723
H -2.571180 -5.838497 -4.624374
H -0.570641 -4.789218 -4.025420
C -2.391470 -2.049723 1.020231
C -3.786701 -2.029048 1.385445
C -4.062862 -0.798859 1.825198
C -2.849632 -0.024823 1.704700
C -2.693863 1.280314 2.184823
C -1.510052 2.019461 2.169171
C 0.612686 2.553146 2.056520
C 1.998887 2.435554 1.967470
H 4.736431 1.799785 1.876228
C 2.696786 1.313912 1.494173
H 5.268476 -0.474513 1.153762
C 3.563385 4.527650 4.692440
C 4.201842 5.516194 3.973436
C 3.157493 -0.722619 0.859702
C 4.145612 5.504564 2.591700
C 3.031064 -2.080736 0.575402
C 3.456051 4.519897 1.929478
C 1.833228 -2.786286 0.409581
C 1.738681 -4.211598 0.321157
C 0.441526 -4.534652 0.354560
C -0.298434 -3.296710 0.459216
N -1.241640 3.554612 -0.771479
C -1.675723 -3.216593 0.689678
C -3.848372 1.876025 2.932932
C -3.810017 1.903162 4.318198
C -4.857266 2.423924 5.037523
H 4.371907 -2.911630 2.685628
C -5.960740 2.938226 4.398602
C -5.999071 2.938226 3.029800
H 6.218224 -4.296885 2.864208
C -4.954380 2.413587 2.297380
H 7.248592 -5.120025 0.973319
H 6.439037 -4.552743 -1.088870
H 4.596547 -3.175242 -1.284948
H 3.368372 -3.515095 -3.955728
H 5.588069 -3.145521 -4.521954
H 6.615863 -1.132251 -4.058613
H 5.448294 0.576057 -3.026432
C -2.405180 -4.521730 0.819896
C -2.523518 -5.405605 -0.231169
C -3.160907 -6.629332 -0.036793
C -3.672289 -6.966600 1.190824
C -3.550141 -6.108570 2.227869
C -2.925538 -4.895180 2.049907
C 1.739762 -1.574188 -2.590843
C 3.111906 -1.693072 -3.091677
C 2.721489 0.361550 -2.162013
C 1.993806 2.469152 -1.490536
C -2.145844 2.581574 -0.924037
C -3.577889 2.869738 -0.982983
C 4.128947 1.154969 1.591104
C 4.422983 -0.089433 1.199638
C -6.326408 2.662984 -1.157084
C -5.577421 1.518082 -1.298960
C -4.201234 1.634381 -1.202649
C -3.130110 0.663928 -1.315171
C -2.402417 -1.432045 -2.055108
C -2.697399 -2.673863 -2.759587
C -3.883638 -3.269574 -3.133433
C -3.809313 -4.454535 -3.840449
C -2.589625 -5.032155 -4.161459
C -1.391869 -4.417061 -3.796537
C -1.467478 -3.238561 -3.082293
C -0.455997 -2.322381 -2.569669
N -1.846059 -0.807905 1.164832
N -0.294062 1.593030 1.701356
N 2.137410 0.171594 0.992154
N 0.577738 -2.238387 0.449772
N 1.565814 -0.346584 -1.995805
N 2.953893 1.636965 -1.897398
C 4.279901 -2.924553 0.684570
N 0.708166 2.164189 -1.144129
C 4.777917 -3.246314 1.917837
C 5.888777 -4.073331 2.024928
N -1.914491 1.251885 -1.093871
C 6.506745 -4.564373 0.899069
N -3.367599 -0.581767 -1.715983
C 6.022797 -4.228397 -0.323125
N -1.059398 -1.257596 -1.945477
C 4.914490 -3.403964 -0.440805
N 0.833040 -2.504583 -2.821782
C 3.785624 -2.708753 -3.752595
C 5.104420 -2.474862 -4.095679
C 5.726470 -1.258888 -3.817038
C 5.039975 -0.243207 -3.189775
C 3.739074 -0.468052 -2.813496
H -4.818930 2.429093 5.967282
H -2.033552 3.847945 3.120409
H 0.329446 4.439779 2.995053
H -6.672113 3.280663 4.890569
H -6.735984 3.296169 2.589536
H 1.888449 7.530757 -0.880399
H 0.044792 6.173931 -0.510279
H -3.917269 4.845535 -0.787459
H -6.236451 4.671086 -0.894678
C -1.354282 3.325890 2.758926
C -0.060956 3.652820 2.690818
H 3.600440 4.528942 5.621555