12
H8 C3 O1
H -0.536874 -1.515928 -0.108247
H 0.784447 0.023960 1.663980
C 0.249808 0.116974 -0.368856
H -1.010411 0.947204 1.116177
C 1.179697 -0.284362 0.822610
C -0.743092 1.198685 0.207252
H -0.300106 2.071977 0.227802
O -0.609432 -0.906174 -0.680509
H -1.539321 1.248636 -0.363598
H 2.059941 0.130753 0.704557
H 0.759624 0.447688 -1.161114
H 1.277078 -1.259280 0.845813