128
Zn1 H57 C65 N5
C -1.938460 1.229600 8.351858
H 5.645769 -2.560026 7.456061
C -2.683767 -0.098617 8.370920
C -2.806774 2.280465 9.047950
C -0.647599 1.092205 9.166435
C -3.161615 1.962498 -3.032940
C -2.340448 2.657159 4.777146
C -2.775048 1.078483 -4.088169
C -3.614825 0.821439 -5.155324
C -4.873960 1.448408 -5.235420
C -5.211785 2.354194 -4.226085
C -4.377147 2.614166 -3.132801
C -5.883536 1.145443 -6.352401
C -6.228096 2.437619 -7.112605
C -7.167307 0.568602 -5.726583
C -5.340818 0.121655 -7.354618
C 1.052870 -2.160463 -4.048303
C -0.035225 -1.558924 -4.754235
C -0.549761 -2.123507 -5.904830
C -0.020868 -3.331709 -6.391662
C 1.072190 -3.886414 -5.726153
C 1.619516 -3.311219 -4.570125
C -0.642282 -4.060033 -7.593129
C 0.385728 -4.125712 -8.720124
C -1.913292 -3.376715 -8.102591
C -1.040724 -5.485945 -7.148993
Zn 0.958223 0.994875 -0.294611
C 3.303325 2.832242 0.142343
H 2.967627 -3.644920 -1.938915
C 4.301735 3.750468 -0.134006
H 3.667737 -3.500389 0.441089
C 4.480219 4.163386 -1.444320
C 3.665078 3.640149 -2.426597
H -3.535420 3.127889 2.145859
C 2.684215 2.735096 -2.065483
H -4.168178 3.082152 -0.257670
H 2.359683 -1.202537 6.203680
H 4.839313 -4.032774 4.689169
H 4.470648 -3.249748 2.519725
H 2.253337 -4.775551 6.766428
H 3.341610 -5.267686 7.833138
H 3.673054 -5.324401 6.270281
H 3.437321 -1.709309 8.201360
H 3.196270 -3.072286 9.005663
H 2.109771 -2.565515 7.944606
H 5.153034 4.796393 -1.663150
N 2.054471 -0.892803 -0.533475
H 0.096290 0.531829 6.687907
N 1.103739 0.861505 1.625468
H -3.257149 2.805897 6.595564
N -1.119243 2.143618 0.243026
H -2.954063 3.212046 4.311065
H 0.005896 -4.614555 -9.481090
N 0.061018 0.660626 -1.968465
H -2.879621 -0.349990 9.296697
N 2.491729 2.338094 -0.798498
H -2.128110 -0.790900 7.956300
H -3.523013 -0.009703 7.871810
H -3.680759 2.324739 8.608125
H -2.369161 3.155332 8.991338
H -0.130581 1.922249 9.101096
H -0.116402 0.348879 8.814525
H -3.342225 0.218984 -5.838017
H -6.041637 2.813215 -4.284675
H -4.643189 3.234000 -2.463133
H -5.410651 2.818704 -7.494992
H -6.631856 3.082152 -6.495311
H -6.862272 2.235093 -7.832860
H -7.815840 0.372662 -6.433327
H -7.549975 1.221550 -5.104748
H -6.952666 -0.256686 -5.243681
H -4.522664 0.469626 -7.766971
H -6.011505 -0.042634 -8.050036
H -5.141242 -0.717720 -6.889262
H -1.261392 -1.696502 -6.366819
H 1.461061 -4.682246 -6.069434
H 2.372090 -3.707123 -4.149350
H 1.189879 -4.588942 -8.402748
H 0.620929 -3.216817 -9.000952
H -1.693865 -2.475869 -8.421341
H -2.565901 -3.315610 -7.373857
H -2.292946 -3.901050 -8.837248
H -2.925704 2.033848 9.988740
H -1.683230 -5.430512 -6.411871
H -0.869685 0.919683 10.105409
H -0.242244 -5.970214 -6.851616
H -1.447497 -5.961067 -7.902456
H 3.189181 2.540620 1.038903
H 4.853493 4.090206 0.560193
H 3.775855 3.896279 -3.334852
H 2.122178 2.379624 -2.744038
C 5.282776 -3.468007 7.388569
C 2.068119 -1.709675 -1.642664
C 2.793397 -2.927024 -1.341562
C 3.175888 -2.847075 -0.042187
C 2.695204 -1.582524 0.469515
C 2.687051 -1.112526 1.795310
C 1.919057 -0.030194 2.245809
C 1.720899 -0.058551 3.683104
C 0.690231 0.824000 3.925970
C 0.333973 1.366264 2.631323
C -0.868621 2.084526 2.657780
C -1.607725 2.411640 1.502338
C -2.981713 2.863527 1.420107
C -3.326982 2.838462 0.111887
C -2.165154 2.369379 -0.618008
C -2.107550 1.967438 -1.966460
C -1.081313 1.171788 -2.487184
C -1.448206 0.547928 -3.743099
C -0.474256 -0.394264 -3.978096
C 0.424721 -0.310107 -2.851017
C 1.319798 -1.386219 -2.788985
C 3.167734 -1.777732 3.049015
C 2.561740 -1.154421 4.182535
C 2.775141 -1.629177 5.462377
C 3.609247 -2.745720 5.666493
C 4.240941 -3.306279 4.555837
C 4.028781 -2.840488 3.254591
C 3.785604 -3.397205 7.040412
C 3.211159 -4.820007 6.971581
C 3.067947 -2.616009 8.148030
C -1.269900 2.089831 4.107151
C -0.337601 1.303329 4.863221
C -0.528846 1.064213 6.210439
C -2.517159 2.409445 6.152418
C -1.649909 1.608307 6.885970
H 5.759205 -3.959594 6.687100
H 5.397629 -3.930322 8.245377