78
Fe1 H24 C44 Br4 N4 Cl1
Fe 0.228608 0.052206 -0.502569
H -0.272905 -5.030025 -0.363326
Br 3.765827 -8.251230 2.918614
C -0.184621 3.114830 -0.242503
C 0.604244 4.272039 0.052631
N 1.519840 -0.529767 0.965942
Cl 1.486235 0.033684 -2.336742
C -2.151087 1.968336 -1.145078
H -2.106945 -4.286104 -1.769474
H -4.604543 0.353447 -2.273672
C -2.078466 4.377658 -1.042087
H -3.570759 -1.448187 -4.235247
H -4.332569 -3.213084 -0.698804
H -5.457485 -2.496716 -5.153841
C -2.401701 5.260872 -0.026386
H -6.185120 -4.237122 -1.658374
C -0.505008 -4.143749 -0.522149
C -3.045324 6.486962 -0.180485
C -3.466811 1.920884 -1.662998
C 0.182757 -2.989601 0.019960
C -3.056716 6.121125 -2.574952
C -1.410636 3.084216 -0.811634
C -3.775807 -2.228844 -2.396285
C -3.351472 6.883414 -1.479423
C -2.441572 4.910341 -2.298201
C -1.572966 -2.300786 -1.230173
C -2.632380 -1.579827 -1.738318
H 2.439708 4.428171 0.948639
Br -4.212816 8.551877 -1.709462
H 5.138082 1.340749 0.901697
C -2.656587 -0.163929 -1.583538
N 0.487481 1.991296 0.209187
C -1.530248 -3.738114 -1.289033
C -3.794319 0.653465 -1.928695
H 2.886826 3.443931 3.416647
H 4.733682 4.209281 4.523763
H 7.017688 2.035687 2.052003
C -4.097619 -2.008423 -3.711144
C 1.649419 2.453568 0.794975
H 4.084363 -0.211381 2.874440
C -4.550433 -3.064606 -1.590389
C -5.990040 -3.451873 -3.479335
H 2.469611 -5.882624 4.113326
H 2.226116 -5.106560 -0.439944
C -5.231078 -2.637540 -4.262949
C -5.656837 -3.669232 -2.171131
H 3.155952 -7.087285 0.357600
Br -7.446308 -4.331260 -4.301039
N -1.649859 0.685609 -1.097863
C 6.052254 3.180650 3.389129
N -0.514976 -1.887497 -0.473586
C 3.749737 2.257638 2.068734
H 3.440741 -2.580905 2.554154
H 1.498481 -3.946289 3.353514
C 1.740552 3.884772 0.667241
C 5.041254 1.887209 1.646888
C 2.939512 -6.667874 2.333110
C 1.767607 -4.324372 1.375641
C 3.383783 -0.531297 2.354382
C 2.586374 1.637705 1.420024
C 2.422621 -5.726493 3.198331
C 3.719834 3.145444 3.135141
C 4.820542 3.616900 3.809944
C 1.262106 -3.015623 0.898977
C 6.174713 2.323458 2.322856
C 2.270259 -5.265752 0.475282
C 2.479579 0.252421 1.570041
C 2.841260 -6.447453 0.954274
H 0.370718 5.150661 -0.148101
C 1.855891 -1.809432 1.337917
Br 7.604068 3.692057 4.320369
H -2.166751 5.012898 0.838980
H -3.260340 7.016584 0.553279
H -4.017878 2.657151 -1.795951
H -3.253220 6.395120 -3.441526
C 3.023525 -1.832392 2.192582
H -2.240796 4.380719 -3.036541
C 1.840228 -4.564692 2.748915