12
H5 C6 Cl1
C 0.940454 1.194160 1.778618
C 1.083312 1.654463 0.484337
H -0.814961 -1.484045 1.138376
C 0.533149 0.955045 -0.569374
H 0.151013 -0.300358 2.909548
H 1.319045 1.679161 2.501112
C -0.166252 -0.207602 -0.308730
H 1.563640 2.456698 0.319894
C -0.325593 -0.686200 0.974925
H 0.633114 1.267523 -1.460248
C 0.241407 0.019987 2.020753
Cl -0.862463 -1.095459 -1.637798