108
Zn1 H39 C57 N7 O4
Zn 0.166831 -2.798333 -0.620390
H 1.114147 -0.022035 -5.380884
H 0.046110 -7.698947 0.984371
H 3.164216 -1.745857 -4.707081
O -0.616918 6.761322 1.533931
H -0.817078 5.411546 3.015086
O 0.072693 11.332048 1.028695
H -2.218193 5.886187 2.385598
O -1.694338 -3.175685 -1.568377
H 2.025810 1.571910 -6.822352
H -1.619279 7.480132 3.905816
H 3.306517 -4.194629 -4.482740
H 1.328380 -7.814655 -1.102088
H -1.961739 -3.769577 3.965083
H 0.613749 2.138646 -2.088027
H -3.353471 1.120882 0.793533
H 3.278370 1.486899 -2.346390
H -2.269796 -1.337335 3.677998
H -3.563013 3.491728 4.073165
H -4.432455 2.811645 2.021298
H -0.599717 0.795009 3.762355
H -2.659169 -6.763832 1.754861
H 0.114914 8.889888 0.503190
H 3.562971 3.132795 -6.017524
H 0.344785 -5.731901 4.243072
H -1.724049 9.673873 4.730454
H -2.296380 -8.577388 5.342129
H -1.691211 2.481049 4.936049
H -0.416759 -7.325846 5.780169
H 1.060980 -6.088472 -4.753608
H 0.247833 3.172939 1.808457
H -3.391001 -8.355416 3.294885
H 4.160322 3.120988 -3.766378
H 4.682612 -8.700180 -3.417941
H 3.841318 -7.025948 -1.984527
H 3.631776 -9.078004 -5.463869
H 1.871000 -7.788680 -6.127758
H -1.301838 12.186403 4.379485
O 0.343221 13.468643 0.588965
H -2.826489 -4.279640 -2.674658
H -1.276818 -4.300892 -3.078389
H -1.777217 -5.091961 -1.780357
H -2.166589 -2.631382 -1.809549
C -0.329189 1.472731 -0.396925
C -0.621609 -5.084877 1.832770
C 1.828778 -5.304487 -2.351308
C 1.514466 -0.451810 -2.783392
C -1.090733 -6.090833 2.845372
C 1.739645 0.608458 -5.046430
C 1.853798 -1.795447 -3.001396
C -1.231470 4.518937 1.206721
C -0.909338 -3.727072 2.099103
C 1.986717 -3.989187 -2.805810
C 2.097743 0.573037 -3.726260
C 0.315074 -6.962190 0.447375
H -0.588771 13.837021 2.978828
C 2.726368 -2.277172 -4.051501
C -1.279946 5.652409 2.172982
C 2.280701 1.560103 -5.906364
C -1.844458 0.804455 2.117374
C 0.052364 -5.561880 0.719341
C -1.294020 8.205082 3.386783
C 2.804555 -3.609002 -3.929559
C -1.125135 -0.241646 1.328695
C -0.480872 0.136178 0.144002
C 1.003121 -7.025948 -0.687190
C -1.647426 -3.245346 3.237045
C 0.377623 1.408973 -1.526045
C 0.713828 0.022831 -1.725431
C -2.998501 1.397166 1.629547
C 3.014097 1.508152 -3.258592
C 2.396418 -6.400177 -3.205968
C 1.162623 -5.668143 -1.171340
C -1.811619 -1.920601 3.084452
C -3.134547 2.799838 3.584080
C -1.162665 -1.552223 1.858002
C -3.645892 2.403122 2.362626
C -1.369079 1.210615 3.389408
C -2.196300 -6.872457 2.577440
C -0.268203 9.045741 1.357701
C 3.189236 2.485771 -5.428762
C -0.419886 -6.256131 4.044773
C -0.734199 7.987833 2.120637
C -1.362824 9.510936 3.867964
C -1.980504 -7.956339 4.698341
C -2.024288 2.207126 4.088490
C -0.881191 -7.205414 4.961204
C 1.791249 -6.624510 -4.469293
C -0.437088 3.404356 1.191543
C -2.637276 -7.812294 3.494076
C 3.548898 2.473964 -4.102443
C 3.935142 -8.175950 -3.678773
C -0.910902 10.590096 3.100129
C -0.365155 10.313812 1.851866
C 3.437872 -7.167632 -2.833794
C 3.317463 -8.386114 -4.893660
C 2.277573 -7.630466 -5.284092
C -0.540295 12.932605 2.691068
C -0.025823 12.653960 1.407696
C -0.965633 11.964431 3.519497
C -1.908571 -4.291447 -2.329383
N -0.834279 2.713647 0.116297
N 0.171209 -0.719357 -0.707308
N -0.602845 -2.672235 1.276866
N -1.846022 3.342960 -0.527930
N -2.079019 4.443372 0.156992
N 1.412822 -2.862563 -2.258860
N 0.577783 -4.805760 -0.285061