113
Sn1 H44 C60 Br2 N4 O2
Sn 0.000000 0.000000 0.000000
C -6.356259 3.114493 -0.469327
H 3.873200 2.312318 2.547927
C 6.356259 -3.114493 0.469328
H -3.873199 -2.312318 -2.547927
C 2.036039 1.639875 1.667677
H 4.993955 0.529708 1.248411
C -2.036039 -1.639875 -1.667677
H 9.200451 -3.051372 -0.638285
H -4.993955 -0.529708 -1.248411
C -7.150311 2.929254 0.674789
C 8.458408 -3.662281 -0.831231
H -6.660438 3.682581 -1.168104
C 7.150311 -2.929254 -0.674789
H 6.660438 -3.682581 1.168104
C -2.524813 2.908319 1.906513
H -3.364098 3.320984 2.071299
C 2.524813 -2.908319 -1.906513
H 8.539352 -3.993428 -1.749027
H 3.364098 -3.320984 -2.071299
C 1.034501 2.462350 2.204796
H -9.200451 3.051372 0.638285
C -1.034501 -2.462350 -2.204796
C -8.458408 3.662281 0.831231
H -8.488075 4.418463 0.206504
H 8.488076 -4.418463 -0.206504
C -5.439327 1.451464 1.535222
H -8.539352 3.993428 1.749027
C 5.439327 -1.451464 -1.535222
H 2.344064 6.641968 3.378115
C -3.277661 1.086695 0.322272
H -5.136796 0.872274 2.223569
C 3.277661 -1.086695 -0.322272
H 5.136796 -0.872274 -2.223569
C 3.066329 0.016494 0.505831
H -4.618539 2.607306 -1.369393
C -3.066329 -0.016494 -0.505831
H 4.618539 -2.607306 1.369393
C -5.138262 2.477892 -0.584052
H -1.203164 4.012459 3.026641
C 5.138262 -2.477892 0.584052
H 1.203164 -4.012459 -3.026641
C -1.342892 3.285776 2.432159
C 1.342892 -3.285776 -2.432159
C 2.102516 5.778893 3.687871
H -2.344064 -6.641968 -3.378115
H -7.178696 1.934862 2.447804
C -2.102516 -5.778893 -3.687871
H 7.178696 -1.934862 -2.447804
C -6.662269 2.083307 1.665591
H -3.186462 2.290115 -3.907934
C 6.662269 -2.083307 -1.665591
H 3.186462 -2.290115 3.907934
C 2.068820 5.528313 5.041620
H -1.866095 0.903993 -3.038113
C -2.068820 -5.528313 -5.041620
H 1.866095 -0.903993 3.038113
C -2.434530 2.607306 -3.420876
H 1.789180 4.983062 1.836635
C 2.434530 -2.607306 3.420876
H -1.789180 -4.983062 -1.836635
C -1.690839 1.827334 -2.904616
H 1.146394 2.404304 4.848675
C 1.690839 -1.827334 2.904616
H -1.146394 -2.404304 -4.848675
C 1.782404 4.784184 2.764860
H -0.946782 5.439816 -2.436331
C -1.782404 -4.784184 -2.764860
H 2.737793 7.412741 5.553709
C 1.414313 3.262938 4.538918
H 0.946782 -5.439816 2.436331
H 1.769036 4.053694 6.390155
C -1.414313 -3.262938 -4.538918
H 3.127860 6.299403 6.637334
H -1.769036 -4.053694 -6.390155
C -0.534373 2.176561 -2.085900
H -2.776251 4.675387 -3.752534
C 0.534373 -2.176561 2.085900
H 2.776251 -4.675387 3.752534
C -0.307475 3.543969 -1.952402
H 1.628026 6.854486 6.559113
C 2.422810 6.619765 6.036595
C 0.307475 -3.543969 1.952402
H -1.628026 -6.854486 -6.559113
C -1.122404 4.513303 -2.546884
C 1.122404 -4.513303 2.546884
C 1.755484 4.257330 5.462972
H -2.737793 -7.412741 -5.553709
C -1.755484 -4.257330 -5.462972
H -3.127860 -6.299403 -6.637334
C -2.204885 4.060038 -3.312409
C 1.461011 3.515105 3.188298
C 2.204885 -4.060038 3.312409
C -1.461011 -3.515105 -3.188298
C -0.334395 2.397960 1.938844
C -2.422810 -6.619765 -6.036595
C 0.334395 -2.397960 -1.938844
Br 1.241988 4.098735 -1.014269
C 3.449620 1.697921 1.961789
Br -1.241988 -4.098735 1.014269
C -3.449620 -1.697921 -1.961789
N -0.954290 1.491112 1.098226
C 4.062739 0.717168 1.250497
N 0.954290 -1.491112 -1.098226
C -4.062739 -0.717168 -1.250497
N 1.849613 0.619156 0.757182
C -4.652418 1.652880 0.421352
N -1.849613 -0.619156 -0.757182
C 4.652418 -1.652880 -0.421352
O 0.274878 1.274154 -1.586327
C -2.300845 1.782610 1.061723
O -0.274878 -1.274154 1.586327
C 2.300845 -1.782610 -1.061723