124
Zn1 H47 C68 N7 O1
Zn -2.505379 0.783615 -2.023373
H 7.773277 -8.370578 5.908071
H 5.868869 -7.815968 4.674035
H -1.303841 3.449287 -6.724071
H -3.462855 2.025232 -6.942070
H -5.679734 2.221222 -5.847200
H -7.400259 0.334297 -4.876601
H 0.357533 4.068532 -2.710639
H -9.561844 0.991072 -5.530617
H -6.576001 0.244642 1.091197
H -0.293129 4.310392 -4.096699
H -10.587987 2.813362 -4.561988
H -0.294415 5.438377 -3.033327
H -4.793754 1.616572 2.967195
H -9.429397 4.083127 -2.993445
C -0.415289 0.820102 -4.267225
H -7.247237 3.499327 -2.379252
H -5.506139 1.101577 5.146333
H -7.572568 0.928522 -1.059664
H -5.355689 -1.056398 5.937053
H -4.571294 -2.751503 4.558277
C -0.195401 0.459397 -7.329261
H -3.901344 -2.274038 2.369013
H -1.685751 -0.626888 2.852417
C 0.303525 0.692917 -8.611164
C 0.192938 1.939747 -9.177786
C -0.411431 2.975992 -8.487143
C -0.210832 -0.570593 1.404007
C -0.356138 -0.212390 -0.008482
C 0.657146 -0.124820 -0.978162
H -3.630021 4.074787 -2.891342
C 2.075486 -0.379607 -0.569721
H -2.882917 4.279117 -4.236361
H -2.884203 5.407102 -3.171031
C 2.740292 0.478162 0.302203
C 4.050617 0.215452 0.691633
C 4.712852 -0.900023 0.187796
C 4.071191 -1.740278 -0.704946
C 2.758295 -1.487993 -1.091845
C -1.335988 1.239187 -5.232897
C -0.802343 1.493557 -6.610636
C 0.977333 -0.970913 2.214167
C 0.480978 0.215452 -2.326999
C 1.363101 -0.207803 3.300957
C 1.555985 0.371827 -3.277146
C 2.485685 -0.543488 4.053287
C 1.014624 0.742957 -4.448702
C -0.898785 2.738302 -7.205860
C 3.259793 -1.648538 3.720309
C -2.715751 1.439347 -5.027351
C 2.822589 -2.459603 2.680218
C -3.658311 1.852177 -6.029268
C 1.693575 -2.136428 1.933235
C -4.865764 1.948087 -5.439220
C 4.545686 -1.950863 4.420599
C -4.687025 1.560277 -4.067461
C 5.348083 -0.918788 4.923174
C -5.722168 1.483132 -3.118363
C 6.576110 -1.246133 5.528674
C -7.107075 1.856347 -3.555788
C 7.474950 -0.182783 6.035218
C 8.705549 -0.499703 6.614694
C -7.800171 1.109917 -4.497764
C 9.506660 0.509437 7.092104
C -9.100209 1.491472 -4.867950
C -9.702007 2.575672 -4.316884
C 9.057884 1.804222 7.017828
C -6.104079 0.446887 0.291054
C -9.015340 3.324187 -3.385222
C 7.807996 2.041912 6.472015
C -4.678024 0.405187 0.116310
C -7.715302 2.969737 -3.013078
C 4.993176 -3.253988 4.579347
C -5.560146 1.061962 -1.801615
C -3.753467 0.037602 1.104617
C 6.232777 -3.495848 5.186185
C -6.646725 0.832612 -0.872384
C -4.263966 -0.299543 2.465452
C 6.714987 -4.884458 5.401807
C -4.747462 0.726277 3.293625
C 7.871004 -5.142998 6.123196
C -5.167949 0.415612 4.583507
C 8.261916 -6.437783 6.337619
C -5.088223 -0.856238 5.047366
C 7.522528 -7.461518 5.789683
C -4.617587 -1.859123 4.235763
C 6.387084 -7.119578 5.059796
C -4.215102 -1.579733 2.938144
C -2.367274 -0.106680 0.895680
C -1.456862 -0.476768 1.941956
C -0.353566 4.500127 -3.168944
N 7.023601 1.074472 5.971303
N 7.001741 -2.503179 5.648437
N 5.989743 -5.876918 4.866383
H -0.123391 -0.403793 -6.941995
H 0.717583 -0.011813 -9.094959
H 0.536272 2.091952 -10.049133
H -0.492442 3.835012 -8.886109
H 2.296659 1.251697 0.628130
H 4.491678 0.795082 1.300150
H 5.606547 -1.085588 0.454676
H 4.526397 -2.497133 -1.054986
C -1.636887 3.882967 -2.701000
H 2.327521 -2.061368 -1.714400
C -2.868772 4.466767 -3.305641
N -1.684465 0.066792 -0.273301
N -0.722617 0.491715 -2.958695
H 0.859031 0.563647 3.530710
N -3.363841 1.267752 -3.834387
H 2.722290 -0.018068 4.807195
N -4.361694 0.788827 -1.172102
H 2.480542 0.236302 -3.099369
H 3.303513 -3.253988 2.473241
H 1.487833 0.924352 -5.251089
H 1.406821 -2.707718 1.229654
H 5.070330 -0.011813 4.859746
H 8.989731 -1.404593 6.672774
H 10.356635 0.317617 7.470528
O -1.706325 2.984332 -1.886749
H 9.591529 2.523547 7.335544
H 7.485237 2.936377 6.449938
H 4.462103 -3.979568 4.272805
H 8.384076 -4.423673 6.470946
H 9.034738 -6.627518 6.856571