110
Ni1 H34 C64 N9 O2
Ni 1.143893 0.964602 1.595794
C 3.404306 5.049213 3.045189
H 0.463111 -3.743442 3.097725
C -0.452474 0.052411 -3.610134
H -0.016833 -2.402468 5.081333
C 0.096385 -0.461019 -4.796762
C -0.585382 -0.352530 -5.992833
C 3.170487 6.290529 2.477935
C -1.813546 0.229021 -6.084516
C 1.398386 2.454307 -3.014747
C -2.313180 0.797958 -4.923275
C -1.651103 0.695776 -3.730930
C 2.400116 2.114964 -3.889314
C 2.515794 2.767159 -5.119819
C -2.512541 0.173515 -7.358804
C 1.627283 3.725899 -5.442028
C -3.716093 0.580980 -7.717027
H 3.328007 3.888633 -1.797721
C 0.596019 4.048843 -4.617181
C -4.144351 0.334987 -9.079908
C -0.654297 -2.613138 -2.219563
C 0.500030 3.454677 -3.379582
C -0.144818 -3.394007 -3.230373
C -0.779821 -4.529357 -3.689072
H 0.928288 -0.877314 -4.775830
H -0.191582 -0.689351 -6.763931
C -1.963682 -4.929252 -3.140706
C -2.524848 -4.116846 -2.168815
C -1.887384 -2.986542 -1.744181
H -2.030136 1.079272 -2.975567
H 2.535484 6.376311 1.803626
C -2.546999 -6.204629 -3.553412
H -2.022752 -0.220073 -8.043523
H 3.005583 1.446369 -3.661918
H 0.662472 -3.146753 -3.620048
C -3.211537 -7.082633 -2.791419
H 3.200022 2.541351 -5.709643
H -0.400788 -5.025126 -4.380425
C -3.536422 -6.899715 -1.390775
C 0.591096 -3.682890 0.325749
H -3.346905 -4.343916 -1.800461
H 1.723272 4.178778 -6.248408
C 1.595287 -4.177398 -0.454529
H -2.300874 -2.450405 -1.108195
H -0.041445 4.669501 -4.886845
H -0.164508 3.722115 -2.786034
C 1.612515 -5.493143 -0.891754
H -2.443626 -6.432960 -4.448513
H 2.291821 -3.613508 -0.702608
C 0.598480 -6.324471 -0.500762
C -0.415555 -5.875377 0.277654
H 2.296743 -5.803472 -1.437781
C -0.437707 -4.553325 0.692050
H -3.118009 1.260928 -4.958458
H 0.608325 -7.213829 -0.771780
H -1.099783 -6.453144 0.530587
C -3.743167 -8.355486 -3.235616
C -0.666603 0.046104 6.066108
H -1.139163 -4.245519 1.220500
C 0.116075 0.124317 7.210353
H 0.992280 0.427077 7.157128
C -0.413094 -0.251610 8.441470
H 0.111152 -0.199889 9.208864
C -1.724941 -0.704489 8.526320
H -2.076900 -0.956789 9.348287
C 4.342043 4.949554 4.026907
C -2.507619 -0.782702 7.379381
H -3.383824 -1.085462 7.435974
C -1.978450 -0.406775 6.149275
H -2.502696 -0.458496 5.384239
C 5.063189 6.082381 4.435367
C 4.812141 7.297206 3.830323
C -4.769508 1.124686 -6.882052
C 3.874405 7.415787 2.905876
N 0.849528 0.068811 -0.087071
N 0.529565 -0.580862 2.511474
N -4.474158 0.167208 -10.171498
H 4.090995 4.776729 0.342689
N -3.733322 -6.847994 -0.259015
N -4.112354 -9.372255 -3.623817
C 0.726465 0.679377 -1.319449
C 0.135765 -0.223857 -2.276450
N -0.206349 3.122902 6.441048
H 4.504485 4.127056 4.429901
N 1.226099 1.929523 3.252504
C 0.495107 1.649470 4.416806
C 0.012702 -1.407144 -1.659976
H 5.703114 6.015522 5.105554
C 0.554177 2.807527 5.263468
N 1.942323 2.445477 0.687989
C 0.495107 -1.236842 -0.297969
H 5.311775 8.042752 4.077283
C 0.571406 -1.891560 2.033425
C 1.398386 3.737253 4.746862
H 3.684889 8.249638 2.544083
C 1.787264 3.180931 3.471183
C 0.406502 -2.814978 3.136707
C 2.737307 3.440800 1.243825
C 0.160377 -2.074478 4.228835
C 0.214525 -0.698181 3.856708
C 3.451070 4.111918 0.218264
C 3.037580 3.618672 -0.954850
C 2.082614 2.611995 -0.679354
N -5.557109 1.675962 -6.252828
C 0.564022 -2.228381 0.720684
O -1.424668 2.856726 6.374810
C 0.059466 0.384186 4.736136
O 0.285901 3.723376 7.383131
C 2.648702 3.828081 2.577993
C 1.346700 1.911862 -1.635358