90
Cu1 H30 C50 Br2 N5 O2
H -4.369206 -6.091810 -3.956645
H -4.422578 -5.685847 -1.671959
H -3.085465 -4.043542 -0.780445
O 5.728188 -1.254522 6.933406
O 3.800763 -2.349832 6.573019
C -3.826658 -5.435415 -3.584419
C -3.862528 -5.188938 -2.225460
C -3.066003 -4.203027 -1.696366
Br -4.504502 1.812345 -3.513303
Br -4.683997 -1.547659 -3.123317
Cu 0.321894 0.199036 -0.416520
H -0.072353 -4.722344 -1.467339
H 1.711613 -4.606354 0.189253
H -1.588870 -3.238206 -4.382780
H -2.944382 -4.864695 -5.299687
H 1.204105 -4.152941 2.914383
H 2.391001 -5.518453 4.392978
H 4.637874 -5.315472 4.593560
H 5.782969 -3.861649 3.309912
H 4.654498 -2.465822 1.830581
H 2.832755 -1.790974 4.463277
H 4.261322 3.644714 1.612743
H 0.607113 4.457959 2.952454
H -2.539960 4.883693 -1.986404
H -2.167454 4.034861 -6.531957
H -1.334083 2.496682 -4.985292
C -1.803860 1.212890 -2.354049
H 1.472723 5.109082 -0.066030
C -3.061713 0.768703 -2.911815
H 0.014279 4.965413 -2.024811
C -3.132100 -0.563858 -2.736565
C -1.905082 -0.990910 -2.117344
C -1.458137 -2.303700 -1.914279
C -0.319290 -2.623989 -1.174220
C 0.211615 -3.960504 -1.016672
C 1.186826 -3.897237 -0.103320
C 1.275660 -2.554132 0.333971
C 2.047771 -2.113899 1.435109
C 2.112711 -0.785292 1.843527
C 2.782029 -0.301564 3.037896
C 2.700968 1.053404 3.004694
C 1.988698 1.398737 1.814170
C 1.786657 2.712845 1.374395
C 1.066465 3.041042 0.227232
C 1.025609 4.351196 -0.367798
C 0.222688 4.272112 -1.439464
C -0.249579 2.939551 -1.514006
C -1.295550 2.529634 -2.357241
H 5.084200 5.462322 2.774115
C -2.230620 -3.437233 -2.505397
C -2.172799 -3.714026 -3.837454
H 1.413747 6.155623 4.216912
C -2.976330 -4.698619 -4.383969
H -3.332098 6.403419 -3.575259
H -3.136131 5.984275 -5.784999
C 2.791918 -3.124853 2.251523
C 2.126288 -4.061995 2.994648
C 2.844449 -4.889738 3.880529
C 4.180900 -4.777702 3.988990
C 4.857137 -3.910418 3.242542
C 4.176593 -3.068176 2.355897
C 3.280897 -1.006727 4.243327
C 4.299938 -0.664031 5.066937
C 5.166408 0.461594 4.722449
C 2.362523 3.851650 2.162890
C 3.682725 4.165349 2.122441
C 1.517902 4.643806 2.937610
C -1.834338 3.518181 -3.330532
C -2.450550 4.703118 -2.894753
C -2.232326 4.206209 -5.620782
C -1.735768 3.280929 -4.685279
N -1.146145 0.132079 -1.803915
N 0.407659 -1.763294 -0.382739
N 1.606412 0.282338 1.129710
N 0.320233 2.168485 -0.521019
N 5.866410 1.299882 4.531319
C 4.180514 5.247478 2.824734
C 3.314827 6.017226 3.613478
C 1.991926 5.674530 3.669986
C -2.928854 5.613899 -3.855205
C -2.815114 5.363468 -5.170644
H 4.872730 -2.605536 8.233391
H 4.754763 -3.906463 7.371188
H 3.661770 -4.084402 9.237263
H 2.788811 -2.837515 8.858455
H 2.688118 -4.152941 8.009503
H 3.634468 6.748751 4.088997
C 4.665066 -1.365240 6.283870
C 4.260313 -3.143305 7.708013
C 3.280690 -3.586174 8.509507