81
Cu1 H24 C48 N8
H 6.337250 -4.011394 -1.823663
H -6.168586 3.955903 2.486274
H -3.282624 1.317873 3.692135
H -1.157537 1.089599 4.852367
H 3.746253 -0.283481 3.454370
H 4.825556 -1.019795 1.359326
H 0.461418 -1.019795 5.476499
H 2.656894 2.138289 4.322186
H -3.396588 -2.432352 -6.490719
H 3.360787 2.467828 6.497042
H 1.222293 -0.764059 7.635227
H 4.222219 -3.321421 -1.246451
C 6.811205 -0.904800 -1.946221
N -0.892404 0.502092 1.712828
N 3.218333 1.204594 9.713927
C 5.540175 -0.498025 -1.608672
N 1.736135 -0.237826 0.962910
C -1.038545 -0.334972 -3.268405
H -7.603188 0.303510 1.682228
H -5.501563 -0.388179 1.001416
N -9.451410 2.936391 2.899239
H -4.040147 3.252200 1.819026
C 2.463491 -1.105613 -3.302698
C 1.282626 -0.945992 -3.948620
C 0.317622 -0.563761 -2.966226
C 2.218469 -0.829281 -1.921535
C -3.344634 0.387612 -2.636846
C 6.141501 -3.101728 -1.796662
C -1.974053 0.064251 -2.320269
C -3.951658 0.780656 -1.475679
C -2.954476 0.649870 -0.436272
C -1.482333 -0.501458 -4.672382
C -1.044579 0.336121 -5.686923
C -2.808334 -1.742379 -6.287481
C -2.368568 -1.555297 -4.987736
C -1.484009 0.155904 -6.994374
C -2.355831 -0.880771 -7.296867
C -6.033841 3.089146 2.174459
C -2.465773 1.094748 3.308303
C -2.837160 -1.066137 -8.633772
C 4.567126 -1.375080 -1.320371
C 1.035258 0.344703 3.264857
C 3.186490 -0.925396 -0.915513
C -3.195810 0.934612 0.907760
C 2.947502 -0.655929 0.422214
C -2.220415 0.823564 1.902528
C -1.303678 0.964305 3.941657
C 1.990877 -0.051774 2.296925
C 3.346039 -0.348703 2.616077
C 3.943343 -0.745179 1.460174
C 1.052353 -0.333255 5.684167
C 1.496811 0.554097 4.667638
C 2.357907 1.566744 4.990831
N 9.434045 -2.998747 -2.884936
C 2.792980 1.760692 6.289355
C 1.498822 -0.171919 6.972703
C 2.361594 0.869906 7.291173
C 2.840577 1.038108 8.646678
C 4.876504 -2.684655 -1.427246
C -0.315546 0.590999 2.963854
C 7.080360 -2.212659 -2.116473
C 8.390607 -2.660626 -2.535037
C -4.557341 1.357349 1.315943
C -6.894267 0.903890 1.689857
Cu -0.001342 0.005895 -0.001948
C -5.626924 0.486988 1.289702
C -4.758118 2.663320 1.776660
C -7.098060 2.189779 2.095453
C -8.417693 2.610285 2.542310
H 7.486942 -0.273183 -2.057767
H 5.351800 0.411640 -1.579094
H 3.276991 -1.347618 -3.684768
H 1.128440 -1.064421 -4.857253
H -3.741830 0.337837 -3.475342
H -4.827837 1.074152 -1.375237
N 0.896491 -0.488070 -1.728859
H -0.450292 1.026094 -5.491775
H -2.659176 -2.130274 -4.316581
H -1.194407 0.729165 -7.665462
N -1.741098 0.240864 -0.974029
N -3.205196 -1.208594 -9.715354