105
Sn1 H30 C58 I4 N4 Cl4 O4
I 7.598794 -5.787705 -2.343723
H -4.554907 6.141927 1.866056
I -7.598794 5.787705 2.343723
H -3.424020 -0.884646 -6.823725
Sn 0.000000 0.000000 0.000000
H 0.335913 3.107562 4.090792
H 1.911537 -3.521400 -3.194223
H 4.676661 -1.843812 1.068569
H 4.324117 -0.117300 2.778856
H 5.097857 -1.571159 -1.350474
H 6.902293 -2.920247 -1.908197
H 2.743681 -4.823140 -1.245327
H 2.383612 0.091735 4.948596
H 4.298974 4.256952 4.920361
H 3.169387 3.484555 3.073755
H 1.344034 0.083753 -3.713823
H 1.046032 1.705211 -7.376688
H -0.096007 3.757712 -4.178434
C 0.594634 1.828614 2.410130
C -0.030148 2.745547 3.315826
C 1.264287 -2.974517 -2.809687
C 1.414779 -2.241391 -1.589180
C 2.576563 -2.172070 -0.824047
C 2.771735 -1.340213 0.284240
C 3.923928 -1.304502 1.148694
C 3.731433 -0.355009 2.102437
C 2.440271 0.207964 1.860703
C 1.864372 1.241483 2.653103
C 3.724675 -3.045939 -1.229151
C 4.979208 -2.489268 -1.440384
C 6.060782 -3.295916 -1.784115
C 5.885807 -4.611972 -1.936681
C 4.654487 -5.224311 -1.750112
C 3.574995 -4.431317 -1.386386
C 2.621419 1.716229 3.818657
C 2.746361 0.948442 4.941732
I -4.874367 -3.370384 -7.804587
C 3.389628 1.408484 6.055333
C 3.994702 2.663621 6.038196
C 3.903335 3.415653 4.939540
C 3.222226 2.948259 3.831997
C 0.366132 2.060736 -2.244938
C 0.638256 1.939948 -3.718845
C 1.116850 0.795095 -4.267750
H -0.335913 -3.107562 -4.090792
C 1.270288 0.669056 -5.625156
H -1.911537 3.521400 3.194223
C 0.935645 1.761393 -6.455427
H -4.676661 1.843812 -1.068569
C 0.449513 2.898894 -5.887193
H -4.324117 0.117300 -2.778856
C 0.273272 2.987121 -4.545271
H -5.097857 1.571159 1.350474
H -6.902293 2.920247 1.908197
N -0.234391 1.570234 1.365547
N 1.907180 -0.389670 0.747858
H -2.743681 4.823140 1.245327
H -2.383612 -0.091735 -4.948596
Cl 1.883127 -0.810850 -6.290884
Cl 0.109822 4.228604 -6.932793
H -4.298974 -4.256952 -4.920361
O 0.881972 1.086035 -1.543204
H -3.169387 -3.484555 -3.073755
O -0.264486 2.981870 -1.787888
H -1.344034 -0.083753 3.713823
H -1.046032 -1.705211 7.376688
H 0.096007 -3.757712 4.178434
C -0.594634 -1.828614 -2.410130
C 0.030148 -2.745547 -3.315826
C -1.264287 2.974517 2.809687
C -1.414779 2.241391 1.589180
C -2.576563 2.172070 0.824047
C -2.771735 1.340213 -0.284240
C -3.923928 1.304502 -1.148694
H 3.424020 0.884646 6.823725
C -3.731433 0.355009 -2.102437
C -2.440271 -0.207964 -1.860703
C -1.864372 -1.241483 -2.653103
C -3.724675 3.045939 1.229151
C -4.979208 2.489268 1.440384
C -6.060782 3.295916 1.784115
C -5.885807 4.611972 1.936681
C -4.654487 5.224311 1.750112
C -3.574995 4.431317 1.386386
C -2.621419 -1.716229 -3.818657
C -2.746361 -0.948442 -4.941732
C -3.389628 -1.408484 -6.055333
C -3.994702 -2.663621 -6.038196
C -3.903335 -3.415653 -4.939540
C -3.222226 -2.948259 -3.831997
C -0.366132 -2.060736 2.244938
C -0.638256 -1.939948 3.718845
C -1.116850 -0.795095 4.267750
C -1.270288 -0.669056 5.625156
C -0.935645 -1.761393 6.455427
C -0.449513 -2.898894 5.887193
C -0.273272 -2.987121 4.545271
N 0.234391 -1.570234 -1.365547
N -1.907180 0.389670 -0.747858
Cl -1.883127 0.810850 6.290884
Cl -0.109822 -4.228604 6.932793
O -0.881972 -1.086035 1.543204
O 0.264486 -2.981870 1.787888
I 4.874367 3.370384 7.804587
H 4.554907 -6.141927 -1.866056