15
H10 C4 O1
H 0.742161 -1.066948 1.231335
H 0.297718 0.363857 1.706968
H 2.594084 0.190268 1.777387
H 2.622442 -0.153721 0.248194
O 0.130727 0.093544 -0.232727
H 2.179210 1.273213 0.722545
H -1.689507 0.242465 0.480906
H -1.304994 -1.214985 0.035385
C 0.765304 -0.123152 1.011097
H -2.761052 -0.287841 -1.481671
C 2.161609 0.336538 0.932493
H -1.763160 0.895941 -1.727598
C -1.226839 -0.275681 -0.195209
H -1.379650 -0.557701 -2.171957
C -1.835382 -0.035842 -1.507307