109
Sn1 H32 C58 I4 N6 O8
H -1.665963 1.230698 4.690663
H -4.879004 0.092864 -2.870545
C -1.194090 2.577212 3.229571
C -1.336714 1.376967 3.833524
C -0.895089 0.378692 2.925976
H 1.389034 -3.403845 -3.607733
H -0.748193 -3.828664 3.361078
H 0.591906 1.821615 -7.590737
H -0.069331 -4.997393 1.333961
H 0.254887 -1.171348 5.541964
H -4.148183 -2.477384 5.928104
H -3.293904 -1.843916 3.872156
H -0.794583 -4.598777 -2.840450
H -0.644992 -6.779329 -3.608822
H 2.040373 -7.615861 -0.757308
H 1.970367 -5.403740 -0.054174
H -3.926033 -1.546516 0.668641
H -7.624545 -1.965519 -0.819268
N -0.510173 0.998275 1.760319
H -7.002867 -0.754176 -2.672840
O -2.413848 0.469158 -2.276080
C 0.690309 -2.356308 -1.911776
C -0.885260 -1.011950 3.156423
C -0.491259 -2.024952 2.279222
C -0.514666 -3.432425 2.552659
C -0.140798 -4.076202 1.434514
C 0.127573 -3.090550 0.420420
C 0.472719 -3.334597 -0.915371
C -1.429594 -1.443239 4.491627
C -0.632874 -1.437979 5.609963
C -1.139968 -1.825087 6.839980
C -2.444243 -2.211143 6.948407
C -3.258041 -2.218506 5.850979
C -2.742399 -1.835606 4.621473
C 0.569133 -4.762056 -1.365311
C -0.210061 -5.193345 -2.428718
C -0.127994 -6.500885 -2.887970
C 0.724277 -7.377137 -2.265649
C 1.492095 -7.000549 -1.188162
C 1.429336 -5.680385 -0.758630
C -2.775027 -0.095725 -1.265608
C -4.171438 -0.631154 -1.122112
C -4.541547 -1.376967 -0.007869
C -5.829481 -1.864008 0.085134
C -6.759395 -1.634689 -0.897827
C -6.384086 -0.908862 -1.995675
C -5.111015 -0.402887 -2.118506
I 3.176980 2.814946 -8.818291
I 0.851570 -9.346653 -3.005813
N -0.066981 -1.853489 0.986727
N -6.219045 -2.671885 1.255154
O -2.038633 -0.316629 -0.241896
Sn -0.000000 0.000000 0.000000
H -1.389034 3.403845 3.607733
O -5.388553 -2.847556 2.140060
O -7.336860 -3.149458 1.284031
H 0.748193 3.828664 -3.361078
H 0.069331 4.997393 -1.333961
H -0.254887 1.171348 -5.541964
H 4.148183 2.477384 -5.928104
H 3.293904 1.843916 -3.872156
H 0.794583 4.598777 2.840450
H -0.591906 -1.821615 7.590737
H 0.644992 6.779329 3.608822
H -2.040373 7.615861 0.757308
H -1.970367 5.403740 0.054174
H 3.926033 1.546516 -0.668641
H 7.624545 1.965519 0.819268
H 7.002867 0.754176 2.672840
C -0.690309 2.356308 1.911776
C 0.885260 1.011950 -3.156423
C 0.491259 2.024952 -2.279222
C 0.514666 3.432425 -2.552659
C 0.140798 4.076202 -1.434514
C -0.127573 3.090550 -0.420420
C -0.472719 3.334597 0.915371
C 1.429594 1.443239 -4.491627
C 0.632874 1.437979 -5.609963
C 1.139968 1.825087 -6.839980
C 2.444243 2.211143 -6.948407
C 3.258041 2.218506 -5.850979
C 2.742399 1.835606 -4.621473
C -0.569133 4.762056 1.365311
C 0.210061 5.193345 2.428718
C 0.127994 6.500885 2.887970
C -0.724277 7.377137 2.265649
C -1.492095 7.000549 1.188162
C -1.429336 5.680385 0.758630
C 2.775027 0.095725 1.265608
H 1.665963 -1.230698 -4.690663
C 4.171438 0.631154 1.122112
C 4.541547 1.376967 0.007869
C 5.829481 1.864008 -0.085134
C 6.759395 1.634689 0.897827
C 6.384086 0.908862 1.995675
C 5.111015 0.402887 2.118506
I -0.851570 9.346653 3.005813
N 0.066981 1.853489 -0.986727
H 4.879004 -0.092864 2.870545
N 6.219045 2.671885 -1.255154
I -3.176980 -2.814946 8.818291
O 2.038633 0.316629 0.241896
O 5.388553 2.847556 -2.140060
O 7.336860 3.149458 -1.284031
C 1.194090 -2.577212 -3.229571
C 1.336714 -1.376967 -3.833524
C 0.895089 -0.378692 -2.925976
N 0.510173 -0.998275 -1.760319
O 2.413848 -0.469158 2.276080