20
H14 C6
H 2.293228 -1.898783 2.588832
H 2.421207 -2.214221 1.058554
H 2.882837 -0.822537 1.613291
H 0.216061 -1.696092 1.597133
H 0.676992 -0.306531 2.151017
H 1.378659 0.244237 -0.039914
H 0.715364 -1.080001 -0.532732
H -2.293228 1.898783 -2.588832
H -2.421207 2.214221 -1.058554
H -2.882837 0.822537 -1.613291
H -0.216061 1.696092 -1.597133
H -0.715364 1.080001 0.532732
H -0.676992 0.306531 -2.151017
H -1.378659 -0.244237 0.039914
C 2.238817 -1.528549 1.705349
C 0.857780 -0.979210 1.476931
C 0.646889 -0.371204 0.126001
C -2.238817 1.528549 -1.705349
C -0.857780 0.979210 -1.476931
C -0.646889 0.371204 -0.126001