20
H14 C6
H 1.342337 0.441871 -0.017629
H -0.837576 0.850529 0.756644
H -1.342337 -0.441871 0.017629
H 0.677988 -0.501398 2.026339
H 0.837576 -0.850529 -0.756644
H -0.677988 0.501398 -2.026339
H 0.248832 -1.803506 1.269903
H -0.248832 1.803506 -1.269903
H 2.316603 -2.120883 2.263767
H -2.316603 2.120883 -2.263767
H 2.905217 -0.907753 1.464110
H -2.905217 0.907753 -1.464110
H 2.475554 -2.211394 0.706802
H -2.475554 2.211394 -0.706802
C 0.695899 -0.280996 0.014880
C -0.695899 0.280996 -0.014880
C 0.879911 -1.069051 1.267661
C -0.879911 1.069051 -1.267661
C 2.267480 -1.626817 1.441005
C -2.267480 1.626817 -1.441005