110
V1 H28 C52 Br16 N4 O9
V 0.171432 -0.244927 -0.120126
C -1.447816 -2.649113 2.738865
C 7.452861 5.736602 0.554562
H -7.545391 -3.919596 -0.690799
C 0.188018 -0.644748 3.275804
C 5.877153 4.016321 0.540506
H -0.684841 1.375399 -8.438466
C 0.652437 -1.810015 7.321121
C -0.529344 -1.141894 -9.062553
H -6.927547 -6.129132 -3.344572
C 1.718114 1.257031 3.537246
H -7.740281 -4.963865 -2.647394
H -7.002186 -6.052850 -1.764678
C 2.910261 1.867284 0.250953
C -1.337931 -1.431238 9.024708
C 0.996605 1.041338 -2.706430
C 4.633173 3.537588 0.177862
C 2.454135 2.014586 2.651718
C 2.497674 1.501658 -0.980353
C 6.893070 3.216679 1.130858
H 0.772689 -2.002034 8.231950
H 7.519207 6.680916 0.352156
C -8.864010 -2.696460 1.032466
H -0.757407 -2.009926 -9.433631
H 7.670558 5.589300 1.487881
H 0.391202 -0.936722 -9.248092
C 2.829402 -3.351430 8.040788
C 1.564689 -2.167750 6.463705
H -1.105721 -0.465881 -9.461743
Br -3.346958 -4.415163 1.669203
C -1.317198 3.592826 -8.489068
Br -3.069136 -3.640510 -2.461293
H 7.743123 3.532327 1.378244
H -2.098832 -1.236588 9.592570
Br 2.833549 1.020032 -5.074585
H -0.527270 -1.107698 9.449199
H -1.269512 -2.393964 8.898204
Br -2.107125 0.256690 5.144409
H -9.442460 -2.325574 1.707154
Br 5.012587 1.724716 -2.561091
H -8.857790 -3.664447 1.099935
Br -1.136821 -3.835949 4.199845
H -9.164638 -2.430790 0.152561
Br -5.202562 -0.598716 1.816510
H 3.611036 -3.914335 8.122313
Br 4.761718 -0.403277 1.253708
H 2.041548 -3.859097 8.330342
H -1.294391 4.481902 -8.877014
Br -5.387086 0.046784 -2.306677
Br 3.492858 4.819908 -0.583693
H 2.920628 -2.567570 8.591783
H -2.212863 3.424481 -8.134857
C 3.233696 1.435898 -2.301617
Br 1.614449 1.677895 5.413159
H -1.107794 2.935226 -9.158134
C -2.747775 0.673082 -3.156222
Br 3.445172 3.523647 3.236447
Br 2.709151 -2.399225 3.821739
C -2.183837 -1.825798 0.824438
Br -0.624715 -1.786605 -4.836195
C -4.331776 -2.188793 -0.336588
Br -3.380131 1.730503 -4.483108
Br 0.094720 3.806678 -4.374596
N 1.187349 0.652039 1.442902
C -0.137490 2.248692 -5.441727
N -1.456109 -0.152863 -1.511670
C -3.481723 0.041786 -2.298806
C 8.551710 1.209684 2.325618
N 1.193569 1.096577 -1.303641
C -0.570810 -0.008191 -6.917607
N -1.188653 -0.978809 1.237684
C 0.370469 -1.086655 4.762929
C -6.707778 -3.482950 -0.600841
O -7.545391 -2.215097 1.234873
C -0.322014 2.264474 -6.751746
O 7.241385 0.849319 1.889882
C 4.330472 2.267105 0.458982
O 2.649025 -2.962130 6.637999
C 2.136920 1.562158 1.347321
O -5.768573 -4.713977 -2.568681
H 8.995397 0.431086 2.705130
O 0.975872 -1.570649 -0.474337
C -0.550077 1.264922 -7.516393
H 8.493658 1.906740 2.997495
C -0.691061 -1.452281 2.491479
H 9.067962 1.533223 1.569406
C -4.516300 -3.140998 -1.323319
O -1.503795 -0.794681 7.754046
C -5.691861 -3.798598 -1.511670
H 8.056192 5.234196 -0.007678
C -0.570810 -0.778898 5.670946
O -0.751187 -1.162937 -7.606351
C 1.461024 -1.810015 5.091839
C 6.457677 1.890958 1.293908
C -0.446412 -0.097625 -5.596343
C -2.378727 -2.906892 1.802735
C 2.340104 1.201793 -3.336138
C -2.664843 -0.550054 -1.219305
C -0.268108 0.828276 -3.302404
O 6.204735 5.331521 0.329666
C 5.151498 1.404334 1.007166
O -0.197616 3.503393 -7.212783
C -5.364279 -1.925753 0.458982
C -1.462329 0.499476 -2.647394
C -6.562647 -2.554418 0.416814
C -2.982058 -1.520671 -0.241007
C -0.363480 1.051860 -4.851375
C -0.342747 -1.233958 6.972532
C 0.903307 0.373217 2.741676
C -6.956574 -5.532031 -2.582737