105
Sn1 H32 C58 I6 N4 O4
H -2.538535 -6.643877 -3.322405
H -2.265615 -7.084431 -1.111233
I -4.558478 2.698134 8.263236
C -2.220141 -5.982345 -2.752390
C -2.041247 -6.245166 -1.442089
H 2.538535 6.643877 3.322405
H 2.265615 7.084431 1.111233
C 2.220141 5.982345 2.752390
C 2.041247 6.245166 1.442089
I 4.558478 -2.698134 -8.263236
H 4.270864 -2.846124 -0.049259
H 4.985792 -1.449170 2.310441
H 6.486332 -2.836734 3.424145
H 5.038074 -0.756598 -5.957736
C 4.696756 -2.266970 2.645051
C 5.605535 -3.104058 3.293499
C 5.179968 -4.317431 3.731651
C 4.198441 -1.089488 -5.737634
Sn 0.000000 0.000000 0.000000
H -3.873211 2.386038 2.393990
H 3.873211 -2.386038 -2.393990
H -1.766486 1.696244 -4.532197
H 1.766486 -1.696244 4.532197
H 0.227334 0.461869 -5.139356
H -0.227334 -0.461869 5.139356
I 6.591379 -5.584294 4.659027
H -3.595686 5.536778 -3.920860
H 3.595686 -5.536778 3.920860
H -2.089002 4.132033 -2.882482
H 2.089002 -4.132033 2.882482
H 0.826858 -2.345526 -4.923223
H -0.826858 2.345526 4.923223
H 1.908671 -3.042845 -6.856230
H -1.908671 3.042845 6.856230
H 3.980430 -0.106297 -3.975985
H -3.980430 0.106297 3.975985
H 1.339700 2.870194 2.711226
H -1.339700 -2.870194 -2.711226
H 1.371279 5.505645 -0.306025
H -1.371279 -5.505645 0.306025
C -2.233614 1.202953 1.771250
C 2.233614 -1.202953 -1.771250
C -3.372197 2.062039 1.680417
C 3.372197 -2.062039 -1.680417
C -3.586553 2.315597 0.388212
C 3.586553 -2.315597 -0.388212
C -2.600204 1.641758 -0.389696
C 2.600204 -1.641758 0.389696
C -2.415235 1.756380 -1.758109
C 2.415235 -1.756380 1.758109
C -1.366259 1.174008 -2.524607
C 1.366259 -1.174008 2.524607
C -1.203686 1.248107 -3.942964
C 1.203686 -1.248107 3.942964
C -0.108376 0.567321 -4.278702
C 0.108376 -0.567321 4.278702
C 0.464801 0.020840 -3.073005
C -0.464801 -0.020840 3.073005
C 1.630676 -0.749096 -2.960655
C -1.630676 0.749096 2.960655
C -3.368911 2.638623 -2.492860
C 3.368911 -2.638623 2.492860
C -3.873401 4.709925 -3.597484
C 3.873401 -4.709925 3.597484
C -2.975155 3.867047 -2.976143
C 2.975155 -3.867047 2.976143
C 2.297993 -1.147378 -4.252317
C -2.297993 1.147378 4.252317
C 1.679536 -2.029621 -5.116778
C -1.679536 2.029621 5.116778
C 2.324057 -2.446428 -6.274993
C -2.324057 2.446428 6.274993
C 3.564702 -1.974047 -6.548191
C -3.564702 1.974047 6.548191
C 3.551198 -0.690048 -4.558871
C -3.551198 0.690048 4.558871
C 0.663074 2.979016 0.157674
C -0.663074 -2.979016 -0.157674
C 1.259408 4.011772 1.065765
C -1.259408 -4.011772 -1.065765
C 1.485290 3.730427 2.389310
H -4.270864 2.846124 0.049259
C -1.485290 -3.730427 -2.389310
C -1.925994 -4.718029 -3.246392
C 1.925994 4.718029 3.246392
H -4.985792 1.449170 -2.310441
C 1.532236 5.294613 0.584604
H -6.486332 2.836734 -3.424145
C -1.532236 -5.294613 -0.584604
I 2.152846 4.300643 5.287487
I -2.152846 -4.300643 -5.287487
N -1.798931 0.935501 0.500236
N 1.798931 -0.935501 -0.500236
N -0.324923 0.436490 -2.019705
N 0.324923 -0.436490 2.019705
O 1.010677 1.762169 0.442110
O -1.010677 -1.762169 -0.442110
O -0.072717 3.317093 -0.762779
O 0.072717 -3.317093 0.762779
H -5.038074 0.756598 5.957736
C -4.696756 2.266970 -2.645051
C -5.605535 3.104058 -3.293499
C -5.179968 4.317431 -3.731651
C -4.198441 1.089488 5.737634
I -6.591379 5.584294 -4.659027