155
Mg1 Si2 H74 C66 N6 O6
C 1.813356 -2.028760 9.617717
H -0.754320 4.654171 -8.392244
N 1.377045 -0.894601 1.263192
N 11.157964 -3.464613 -1.071371
H -2.527346 -1.623757 -1.042004
H -2.168857 -3.194362 -1.019367
O 11.704660 -3.284196 -2.151782
O 11.692113 -4.017095 -0.121662
H -2.684185 -0.814499 4.346805
H -1.776013 4.216228 -5.741838
H -2.610994 4.045542 -7.096081
H -2.140477 5.500111 -6.623809
H -0.702041 0.632584 -8.602329
H -2.385444 1.360991 -10.051650
H -1.085922 2.279548 -10.224032
H -2.345114 2.823046 -9.400825
H -2.258480 -3.124740 7.712524
C -2.703603 1.124427 -1.004501
C -3.338427 0.855673 0.223910
C -1.159114 1.271157 -2.566605
H -2.739452 -2.859728 9.982031
C -5.859798 1.581085 0.431562
H -1.504159 -3.850153 9.749202
H -1.245749 -2.349918 10.242367
H -1.829787 -1.374466 -3.179187
C -3.437012 0.029196 2.633775
C -2.383951 1.754765 -3.148855
H -2.182301 -2.944322 -3.265507
C -3.329465 1.662685 -2.192155
C -2.768281 0.256777 1.371549
H -1.862648 -0.428211 8.359631
C -7.220562 2.023520 0.579325
H -2.497472 -1.014380 7.011710
C -4.720103 1.238966 0.327946
H -3.281666 -1.167099 8.398150
H -0.103066 -6.217289 6.797034
C -9.785251 2.955552 0.895581
H -1.247242 -5.343650 7.498028
H -0.770751 -4.995541 6.009150
C -9.183289 2.324465 1.946566
Mg 0.000000 0.000000 -0.000000
C -7.879286 2.646372 -0.482733
C -0.330108 2.799839 1.538904
C -7.889741 1.856578 1.788333
C -9.172833 3.120997 -0.318004
H 2.527346 1.623757 1.042004
C -2.339140 0.944758 -7.438469
C -0.092610 -1.168596 3.229681
H 2.168857 3.194362 1.019367
C -0.110534 -1.628997 4.597107
H 2.684185 0.814499 -4.346805
C -1.299522 -0.671512 2.717045
C -0.576570 4.379427 -7.446452
H -0.000000 3.416702 3.499892
C -1.897003 4.550861 -6.653819
C -1.224837 1.440345 -8.329923
C -1.813356 2.028760 -9.617717
H 2.258480 3.124740 -7.712524
N -1.377045 0.894601 -1.263192
C -1.856673 -2.300509 -1.309674
N -11.157964 3.464613 1.071371
O -11.704660 3.284196 2.151782
O -11.692113 4.017095 0.121662
H 2.739452 2.859728 -9.982031
C -0.103066 -2.018280 5.743547
H 1.504159 3.850153 -9.749202
H 1.245749 2.349918 -10.242367
C -2.534815 -0.542749 3.447925
C -0.131446 -2.596214 -2.960697
H 1.829787 1.374466 3.179187
H 2.182301 2.944322 3.265507
Si 0.002091 -2.602802 7.474599
H 4.337715 -0.242553 -2.844332
H 1.862648 0.428211 -8.359631
H 2.501953 -2.075923 4.033670
H 2.497472 1.014380 -7.011710
C -1.711784 -2.459217 8.221005
H 4.243611 -1.906735 2.283172
H 3.281666 1.167099 -8.398150
H 0.103066 6.217289 -6.797034
H 1.247242 5.343650 -7.498028
C -1.808875 -2.921864 9.680968
C -1.623656 -2.269067 -2.806978
H 0.770751 4.995541 -6.009150
H 9.641856 -2.208429 -2.768809
H -0.000000 -3.416702 -3.499892
H 0.355501 -1.847594 -3.389925
C -2.397394 -1.155121 7.975786
C -0.480972 -5.317448 6.887308
H 7.440137 -2.745190 1.319285
H 0.267373 -3.754329 -1.281930
H 1.265167 -2.498145 -1.425544
H 7.455074 -1.417886 -2.511698
N -1.473688 -0.176674 1.452618
C 0.092610 1.168596 -3.229681
H 9.623931 -3.552202 1.033114
O -0.565068 -1.997318 -0.737960
C 0.110534 1.628997 -4.597107
H 2.906747 -1.699367 7.177013
C 1.299522 0.671512 -2.717045
H 1.956751 -0.529274 6.637923
H 2.876873 -0.284476 7.923106
H 0.754320 -4.654171 8.392244
C 1.856673 2.300509 1.309674
C 0.103066 2.018280 -5.743547
C 2.534815 0.542749 -3.447925
H 1.776013 -4.216228 5.741838
H 2.610994 -4.045542 7.096081
C 0.131446 2.596214 2.960697
H 2.140477 -5.500111 6.623809
H 0.702041 -0.632584 8.602329
H 2.385444 -1.360991 10.051650
C 1.711784 2.459217 -8.221005
H 1.085922 -2.279548 10.224032
H 2.345114 -2.823046 9.400825
C 2.703603 -1.124427 1.004501
C 1.808875 2.921864 -9.680968
C 1.623656 2.269067 2.806978
C 3.338427 -0.855673 -0.223910
C 2.397394 1.155121 -7.975786
C 1.159114 -1.271157 2.566605
C 0.480972 5.317448 -6.887308
C 5.859798 -1.581085 -0.431562
C 3.437012 -0.029196 -2.633775
C 2.383951 -1.754765 3.148855
Si -0.002091 2.602802 -7.474599
N 1.473688 0.176674 -1.452618
C 3.329465 -1.662685 2.192155
C 2.768281 -0.256777 -1.371549
H -4.337715 0.242553 2.844332
H -2.501953 2.075923 -4.033670
H -4.243611 1.906735 -2.283172
C 7.220562 -2.023520 -0.579325
O 0.565068 1.997318 0.737960
C 4.720103 -1.238966 -0.327946
C 9.785251 -2.955552 -0.895581
H -9.641856 2.208429 2.768809
C 9.183289 -2.324465 -1.946566
H -0.355501 1.847594 3.389925
H -7.440137 2.745190 -1.319285
C 7.879286 -2.646372 0.482733
C 0.330108 -2.799839 -1.538904
H -0.267373 3.754329 1.281930
H -1.265167 2.498145 1.425544
C 7.889741 -1.856578 -1.788333
H -7.455074 1.417886 2.511698
C 9.172833 -3.120997 0.318004
H -9.623931 3.552202 -1.033114
C 2.339140 -0.944758 7.438469
H -2.906747 1.699367 -7.177013
H -1.956751 0.529274 -6.637923
H -2.876873 0.284476 -7.923106
C 0.576570 -4.379427 7.446452
C 1.897003 -4.550861 6.653819
C 1.224837 -1.440345 8.329923