89
Co1 H28 C50 N6 Cl4
H -1.494521 4.539304 -1.881479
H -3.442538 2.619597 2.644332
H -3.309554 0.445259 3.794461
H -1.382068 -4.272711 2.508784
H -2.190694 7.265676 0.877317
H -5.709489 5.408991 0.752626
H -4.632071 3.383714 0.461867
H -3.754132 -3.381751 2.903897
Co -0.332599 -0.144762 -0.274037
H 2.571509 -2.960495 -3.342212
H 2.906233 -0.667545 -4.128839
H 0.289398 3.832612 -3.393015
C -1.236844 2.674243 -0.896503
C -2.039985 2.779281 0.229592
C -2.203352 1.755494 1.151145
C -2.978875 1.867180 2.353467
H 4.067670 -6.411828 -1.512442
C -2.908371 0.670545 2.985603
H -0.031718 -5.137346 0.676282
C -2.096921 -0.177736 2.170847
H 3.891263 1.761876 -2.832563
C -1.873814 -1.523284 2.459163
H 5.308196 2.822546 -4.329769
H 2.229924 3.389910 -6.815624
H 0.534292 -7.245776 -3.213300
H 0.828168 2.286919 -5.349296
H -1.100701 5.237620 0.587094
H 3.229905 -4.387203 -0.790312
H -0.295044 -5.205062 -2.479532
H 1.961974 1.950412 -0.028393
C -2.750479 4.088931 0.464294
H 3.566818 2.718266 1.433377
C -2.030151 5.262962 0.606983
H 2.538978 -0.241795 3.950311
C -2.681061 6.480870 0.782001
H 0.981209 -0.915381 2.399567
C -4.038077 6.515439 0.811698
C -4.781175 5.374648 0.707408
C -4.130192 4.163388 0.533162
C -2.437638 -2.095010 3.721061
C 1.269500 -2.128250 -1.894160
C 2.176650 -2.193400 -2.995265
C 2.349215 -0.935604 -3.434036
C 1.516875 -0.083334 -2.634174
C 1.320240 1.264874 -2.913484
C 0.319297 2.014764 -2.289391
C -0.065994 3.340369 -2.689019
C -1.034547 3.731270 -1.851713
C -1.167004 -2.368906 1.598476
C -1.025047 -3.779605 1.806281
C -3.422363 -3.066943 3.713615
C -0.287663 -4.251611 0.802207
N -1.649838 0.497964 1.062328
C 0.039708 -3.142730 -0.050335
C 0.859612 -3.226494 -1.155683
C 2.212221 1.920363 -3.913838
C 3.550523 2.086563 -3.634629
C 4.403780 2.727427 -4.524657
C 3.886930 3.215388 -5.694852
C 2.561951 3.058496 -6.012288
C 1.723987 2.405665 -5.131250
C 3.190376 -6.171544 -1.703330
C 1.073843 -6.670142 -2.721826
C 2.365661 -7.021154 -2.415387
C 1.386812 -4.572043 -1.569810
Cl -4.842959 8.047397 1.011991
C 2.684843 -4.958955 -1.280404
C 0.582795 -5.442927 -2.286411
C 2.080987 1.510848 0.783350
C 3.045846 1.981525 1.656642
C 3.221612 1.336672 2.863254
C 2.438043 0.222472 3.151042
C 1.504901 -0.169758 2.211490
C 4.168931 1.815325 3.843563
Cl 2.980788 -8.565611 -2.937035
N 0.860848 -0.822854 -1.685585
H -1.241275 -1.057541 4.976765
N -0.420222 1.596208 -1.204747
N 1.310139 0.451029 1.055764
H -2.073321 -1.959338 6.949131
N -0.511543 -1.979468 0.448716
H -4.626208 -4.185118 4.903194
N 4.913402 2.183623 4.633643
Cl 4.923236 4.109273 -6.774364
C -3.391940 -3.205220 6.070425
C -1.918680 -1.694802 4.947236
C -2.407304 -2.241265 6.127851
C -3.920521 -3.578836 4.915691
Cl -3.973918 -3.953915 7.536192