105
Co1 H40 C54 N6 O4
C 2.662843 2.624633 -2.028883
H 7.260456 -2.543483 -6.167553
C -2.112673 -2.822224 2.413783
H -2.859544 -0.247367 0.156985
C -2.245406 -1.739827 3.191256
C 2.757754 1.552966 -2.837847
C -1.480410 -0.674867 2.591691
C 2.063049 0.475934 -2.174426
C 5.404912 8.176108 1.854442
O 5.347823 -2.301815 -7.014041
C 1.909979 2.215549 -0.870580
H 1.701924 -3.550515 -3.305623
Co 0.245827 -0.081359 0.178766
C 2.895125 -1.175157 -3.839198
H 0.149845 -4.783696 -1.833273
H -2.500595 -3.677036 2.559990
H 5.737564 9.097755 1.827003
H -4.722402 0.316271 -1.077186
C -1.478983 -4.705353 0.289814
H -2.751609 -1.684178 3.994069
H 4.979847 8.007713 2.720725
H -2.291541 2.258818 -3.672170
C -1.356598 0.607378 3.146604
C -2.683923 -4.974946 -0.250496
C -3.848187 1.610640 6.514182
H 6.154173 7.555507 1.732010
H -0.490660 1.626695 -2.338217
C 2.403801 4.350835 0.304944
C -3.194158 -6.270603 -0.316621
C -2.467697 1.603934 6.649361
C 1.991331 5.446644 -0.446972
H -2.075887 1.835342 7.483474
C -2.480186 -7.319469 0.193666
C -1.653105 1.263254 5.579888
H -0.670135 3.201080 4.000468
H 0.970111 4.376761 2.582179
C -1.264184 -7.078042 0.696244
H -0.710418 1.249520 5.697491
C 2.650355 6.649754 -0.372356
C -5.984753 1.894988 7.524905
H 3.024754 3.487425 -2.191461
C -0.761442 -5.789091 0.756174
H -3.202293 -4.258606 -0.597891
C 3.717211 6.787904 0.484797
H -6.388695 2.159283 8.377470
H 3.195772 1.512889 -3.679968
H -4.040899 -6.426619 -0.719127
H -6.283972 2.506213 6.818711
C 3.508478 4.495691 1.130765
H -0.737393 -7.801745 1.015470
H -6.258424 0.980959 7.302459
H 0.100606 -5.645952 1.129531
O 4.455803 7.982967 0.813722
H 1.240607 5.361447 -1.023070
H 2.370939 7.381707 -0.908990
C 2.486223 -1.592288 -5.076004
H 3.813335 3.740964 1.620662
C 3.338994 -1.938334 -6.106493
C -2.191885 0.941352 4.336276
H 1.553207 -1.646301 -5.239046
H 2.982615 -2.193455 -6.949590
C -3.572731 0.946717 4.226909
C -4.402310 1.267278 5.297753
H -3.967718 0.722337 3.393193
C -4.094741 -8.963853 -0.429519
H -5.346245 1.250391 5.192214
O -4.552883 1.954003 7.633705
N 0.515930 -1.703613 -0.930737
N -0.878832 -1.124189 1.446433
H -4.226867 -9.932364 -0.360143
H -4.827446 -8.500837 0.028581
C 4.596029 -1.919556 -5.936168
H -4.081682 -8.701892 -1.373025
N -1.498964 0.618108 -0.982049
O -2.900862 -8.621832 0.158096
N -5.786011 1.948638 -3.920357
N 0.225845 1.448348 1.445973
N 1.502861 0.895749 -0.992742
C 4.186770 5.698801 1.266614
C -2.743867 0.262674 -0.635718
C -3.858891 0.593965 -1.359956
C -3.697614 1.343730 -2.515176
C -2.431303 1.739401 -2.889535
H 4.927967 5.789832 1.853514
C -1.364447 1.351777 -2.086031
C -4.859024 1.683068 -3.313144
C 2.024514 -0.834477 -2.670842
C 1.295556 -1.843104 -2.058707
C -0.509179 1.577109 2.606415
C 5.226508 -1.302576 -4.804313
C 1.237753 -3.201800 -2.553333
C -0.273329 2.868742 3.204088
C 4.352329 -0.948484 -3.762750
H 6.161666 -1.146936 -4.762561
C 0.402109 -3.872430 -1.746301
C 0.608700 3.511206 2.427907
C 6.892801 -2.053682 -6.931743
H 4.714382 -0.548131 -2.981212
C -0.041404 -2.960374 -0.729780
C 0.906635 2.646093 1.315175
C -0.907733 -3.311784 0.289973
C 1.695537 3.027011 0.239646
H 7.316689 -2.367644 -7.757201
C -1.274889 -2.442647 1.318849
H 7.062356 -1.095660 -6.819955