101
Sn1 H32 C54 N8 O4 F2
C 1.709898 4.586125 -5.238968
C 1.549723 2.699066 -6.409806
H -1.394567 -4.423914 3.247595
C 1.242635 1.949580 -5.291578
H -1.874154 -5.501729 5.210921
H -1.606029 -2.250785 7.223668
H -1.086295 -1.035061 5.357164
N 6.817147 1.646888 3.252612
H -7.323067 -0.108115 -2.340035
H -5.920940 -3.192084 -3.921788
N 1.626240 1.180651 -0.584417
C -1.772132 -1.811386 1.796117
N -0.938608 0.433070 -1.810151
C -3.085162 -2.370260 1.828818
C -3.694237 -2.077480 0.668206
N 1.769071 3.988365 -6.414764
O -2.878056 1.741812 0.297172
C 2.488330 -0.548772 3.460891
Sn 0.000000 0.000000 0.000000
C 1.440559 -1.291968 3.846504
C 0.441758 -1.222395 2.817499
H 4.560755 2.317518 -0.429123
C -0.814140 -1.840549 2.822975
H 3.879367 2.894996 2.894336
C -1.172239 -2.598042 4.066827
C -1.420154 -3.948528 4.046482
C -1.709898 -4.586125 5.238968
C -1.549723 -2.699066 6.409806
C -5.415357 -0.365975 -1.878819
H -5.350716 0.399523 -1.355835
C -1.242635 -1.949580 5.291578
C -6.605961 -0.678579 -2.499546
H -0.509246 3.249630 2.959642
C -5.807124 -2.441740 -3.383624
H -0.992904 5.047482 4.360893
H -2.916866 6.230001 4.086053
H -3.952099 3.918621 1.016476
C 2.788277 1.341337 0.126061
N -1.626240 -1.180651 0.584417
C 3.036191 0.824588 1.421024
N 0.938608 -0.433070 1.810151
C 2.201647 0.004765 2.171390
N -1.769071 -3.988365 6.414764
O 2.878056 -1.741812 -0.297172
C 4.358404 1.161399 2.028850
N -6.817147 -1.646888 -3.252612
C 4.556327 2.268283 2.780400
C -1.945570 2.182317 0.966670
C -2.189404 3.381457 1.849262
C -1.297727 3.730277 2.847111
C -1.589511 4.812953 3.686827
C -2.718901 5.512499 3.526716
C -3.572830 5.154148 2.530317
C -3.344299 4.124844 1.689360
O -0.770270 1.722942 0.979654
F -4.727725 5.870278 2.426814
H 5.350716 -0.399523 1.355835
H -4.560755 -2.317518 0.429123
H -3.879367 -2.894996 -2.894336
H 0.509246 -3.249630 -2.959642
H 0.992904 -5.047482 -4.360893
H 2.916866 -6.230001 -4.086053
H 3.952099 -3.918621 -1.016476
C -2.788277 -1.341337 -0.126061
C -3.036191 -0.824588 -1.421024
C -2.201647 -0.004765 -2.171390
H 7.323067 0.108115 2.340035
H 5.920940 3.192084 3.921788
H 3.454851 2.853309 -2.532804
H -3.268915 0.415344 -3.948222
C -4.358404 -1.161399 -2.028850
H -1.373305 1.769165 -4.641831
C -4.556327 -2.268283 -2.780400
H 1.394567 4.423914 -3.247595
H 1.874154 5.501729 -5.210921
H 1.606029 2.250785 -7.223668
H 1.086295 1.035061 -5.357164
C 1.945570 -2.182317 -0.966670
C 2.189404 -3.381457 -1.849262
C 1.297727 -3.730277 -2.847111
C 1.589511 -4.812953 -3.686827
C 1.772132 1.811386 -1.796117
C 2.718901 -5.512499 -3.526716
C 3.085162 2.370260 -1.828818
C 3.572830 -5.154148 -2.530317
C 3.694237 2.077480 -0.668206
C 3.344299 -4.124844 -1.689360
C 5.415357 0.365975 1.878819
C 6.605961 0.678579 2.499546
C 5.807124 2.441740 3.383624
C -2.488330 0.548772 -3.460891
C -1.440559 1.291968 -3.846504
O 0.770270 -1.722942 -0.979654
C -0.441758 1.222395 -2.817499
C 0.814140 1.840549 -2.822975
F 4.727725 -5.870278 -2.426814
H -3.454851 -2.853309 2.532804
H 3.268915 -0.415344 3.948222
H 1.373305 -1.769165 4.641831
C 1.172239 2.598042 -4.066827
C 1.420154 3.948528 -4.046482