101
Sn1 H24 C54 N8 O4 F10
H 1.382987 -6.365466 4.000921
H -1.382987 6.365466 -4.000921
C 1.832754 -5.552028 3.961712
C -1.832754 5.552028 -3.961712
N 2.864241 -5.399889 4.725556
F 2.557741 5.336497 5.760833
F 3.612750 6.067611 3.354786
N -2.864241 5.399889 -4.725556
F -2.557741 -5.336497 -5.760833
F -3.612750 -6.067611 -3.354786
Sn -0.000000 0.000000 0.000000
H 2.194803 1.142513 -4.511890
H 0.204851 2.539448 -4.452682
H 3.830143 -3.277302 1.041018
H 4.444734 -2.339195 -1.123355
H 0.621621 -4.780692 2.543311
H 3.501005 -2.396014 3.813514
H 5.280560 -0.021796 -2.164276
H 6.854156 -0.423211 -3.768804
H 4.240119 -1.906485 -6.144081
H 2.557293 -1.573976 -4.623285
C 1.641135 0.460644 -2.589665
C 1.580654 1.189645 -3.815075
H -4.232047 4.115622 -5.154361
C 0.479140 1.956680 -3.781529
C 0.198947 -1.732698 2.548953
C 1.408264 -2.306390 2.144165
C 2.136780 -2.023241 0.982778
C 3.353221 -2.632855 0.569168
C 3.692561 -2.113046 -0.625135
C 2.699798 -1.151610 -0.996957
C 2.640328 -0.445853 -2.204348
C 1.948204 -3.381930 3.041087
C 1.350242 -4.593762 3.090674
C 3.041761 -3.204434 3.822660
C 3.713613 -0.724775 -3.208089
C 5.028513 -0.405705 -2.972423
C 5.973096 -0.662440 -3.948564
C 4.457173 -1.523506 -5.324620
C 3.426984 -1.316428 -4.417423
C 0.891352 2.758581 1.043242
C -3.469392 4.248279 -4.638660
C 1.295816 3.486526 2.309779
C 0.734403 3.218169 3.515776
C 1.129365 3.859478 4.690241
C 2.145403 4.784992 4.612773
C 2.680030 5.108288 3.409783
C 2.274281 4.450075 2.301340
N 0.538814 0.812466 -1.843321
N 1.770435 -1.104066 0.017404
N 5.716053 -1.218171 -5.109998
O 0.970424 1.478076 1.129150
O 0.515798 3.393552 0.092290
F 0.238433 -2.310616 -3.600310
F 0.540192 3.568934 5.831248
F 2.871926 4.799784 1.136534
H 4.232047 -4.115622 5.154361
H -2.194803 -1.142513 4.511890
H -0.204851 -2.539448 4.452682
H -3.830143 3.277302 -1.041018
H -4.444734 2.339195 1.123355
H -0.621621 4.780692 -2.543311
H -3.501005 2.396014 -3.813514
H -5.280560 0.021796 2.164276
H -6.854156 0.423211 3.768804
H -4.240119 1.906485 6.144081
H -2.557293 1.573976 4.623285
C -1.641135 -0.460644 2.589665
C -1.580654 -1.189645 3.815075
C -0.479140 -1.956680 3.781529
C -0.198947 1.732698 -2.548953
C -1.408264 2.306390 -2.144165
C -2.136780 2.023241 -0.982778
C 3.469392 -4.248279 4.638660
C -3.353221 2.632855 -0.569168
C -3.692561 2.113046 0.625135
C -2.699798 1.151610 0.996957
C -2.640328 0.445853 2.204348
C -1.948204 3.381930 -3.041087
C -1.350242 4.593762 -3.090674
C -3.041761 3.204434 -3.822660
C -3.713613 0.724775 3.208089
C -5.028513 0.405705 2.972423
C -5.973096 0.662440 3.948564
C -4.457173 1.523506 5.324620
C -3.426984 1.316428 4.417423
C -0.891352 -2.758581 -1.043242
C -1.295816 -3.486526 -2.309779
C -0.734403 -3.218169 -3.515776
C -1.129365 -3.859478 -4.690241
C -2.145403 -4.784992 -4.612773
C -2.680030 -5.108288 -3.409783
C -2.274281 -4.450075 -2.301340
N -0.538814 -0.812466 1.843321
N -1.770435 1.104066 -0.017404
N -5.716053 1.218171 5.109998
O -0.970424 -1.478076 -1.129150
O -0.515798 -3.393552 -0.092290
F -0.238433 2.310616 3.600310
F -0.540192 -3.568934 -5.831248
F -2.871926 -4.799784 -1.136534