49
Co1 H20 C24 N4
N -1.967572 0.034254 -0.117517
H -5.007866 -0.833507 0.532514
N 0.097720 1.566429 -1.179554
H 4.879403 -0.990096 1.139485
H 0.998060 -4.112622 2.828056
H -1.470189 -4.064776 2.690013
H 2.925006 -2.900693 3.360822
H 3.397136 -3.631983 2.018465
H 4.131681 -2.294456 2.501558
H -4.459976 -2.092196 2.094961
H -3.795701 -3.462345 1.600648
Co -0.000000 -0.000000 -0.000000
H -3.366393 -2.825117 3.005153
C -2.870108 -0.782942 0.550670
H 5.007866 0.833507 -0.532514
H -4.879403 0.990096 -1.139485
C -4.215128 -0.433881 0.194866
H -0.998060 4.112622 -2.828056
C 4.144857 -0.568721 0.707945
H 1.470189 4.064776 -2.690013
C 2.753722 -0.879179 0.893194
H -2.925006 2.900693 -3.360822
H -3.397136 3.631983 -2.018465
C 2.293671 -1.938870 1.660871
C 0.953043 -2.288475 1.717711
H -4.131681 2.294456 -2.501558
C 0.468835 -3.448209 2.401795
H 4.459976 2.092196 -2.094961
C -0.871792 -3.422654 2.328323
H 3.795701 3.462345 -1.600648
C -1.227537 -2.235192 1.593872
H 3.366393 2.825117 -3.005153
C -2.537421 -1.842633 1.393115
C 2.870108 0.782942 -0.550670
C 3.271967 -2.763678 2.455177
C 4.215128 0.433881 -0.194866
C -4.144857 0.568721 -0.707945
C -3.637593 -2.624488 2.084273
N 1.967572 -0.034254 0.117517
C -2.753722 0.879179 -0.893194
C -2.293671 1.938870 -1.660871
N -0.097720 -1.566429 1.179554
C -0.953043 2.288475 -1.717711
C -0.468835 3.448209 -2.401795
C 0.871792 3.422654 -2.328323
C 1.227537 2.235192 -1.593872
C 2.537421 1.842633 -1.393115
C -3.271967 2.763678 -2.455177
C 3.637593 2.624488 -2.084273