129
H60 Au1 C60 N4 O4
C -1.581950 -1.433085 2.758455
H -5.221814 0.624313 0.997425
C -1.976922 -2.082324 5.184277
H -4.305792 -0.691856 2.855085
O -3.902250 -4.642131 6.749072
C 2.986424 -0.714853 1.341821
C 4.294783 -1.167728 1.814550
C 5.124267 -2.016870 1.100989
C 6.386362 -2.406059 1.479261
H -2.307644 -2.823554 7.080625
C 6.796491 -1.910727 2.734956
C 6.115235 -1.043895 3.439584
H -4.334016 -4.758888 4.167234
C 4.820889 -0.672396 3.063074
H -3.388533 -3.410876 2.644446
C 8.802240 -3.379034 2.657563
H -5.430865 -5.677022 6.010011
H -4.018907 -6.441249 5.908931
H -7.525442 0.695075 -2.266296
H -5.515190 -0.047923 -1.403669
O -8.301873 2.950606 -2.834853
H -5.464865 -7.302774 7.744040
H -5.301453 -5.887538 8.469184
H -2.981422 2.288984 -3.644968
H -3.185213 -7.684887 7.969870
H -3.016149 -6.262576 8.688334
C 9.911379 -3.732843 3.582899
H -3.134686 -7.953782 10.279090
C 10.504702 -5.077316 3.122311
H -4.563874 -8.401350 9.714843
C 11.520027 -5.625720 4.143704
H -4.396585 -6.980808 10.432790
C 1.378242 1.574290 -2.696914
C 2.064953 2.154537 -3.814776
C 2.084422 3.520239 -3.980792
C 2.858768 4.104023 -5.041318
C 3.507773 3.219501 -5.886794
C 3.439267 1.981170 -5.779469
C 2.716396 1.362005 -4.735171
C 5.024937 3.113358 -7.777701
C 5.806430 4.050952 -8.711358
C 4.967491 5.006236 -9.356384
C 5.642144 5.678473 -10.628224
H -4.036459 3.684760 -1.739319
H -6.109669 4.440142 -2.451167
H -8.317288 4.756801 -1.909383
H -8.047124 4.854098 -3.493308
H -10.445977 5.478571 -2.751727
H -10.669438 3.918274 -2.497838
H -10.199710 3.603384 -4.766609
H -11.590343 4.318078 -4.406681
H -10.478542 5.545794 -6.128971
H -9.206903 5.743927 -5.176422
H -10.593513 6.456852 -4.817684
N 0.481734 -0.822765 1.715877
N -0.718773 1.294781 -1.494410
N 1.763006 0.412028 -0.543299
O 8.026398 -2.285764 3.267450
H 5.017914 0.311192 -0.400743
H 0.303818 -2.970384 4.110213
H 2.627969 -2.441440 3.490724
H -1.375375 -1.397704 5.459556
O 4.313615 3.927119 -6.860562
C -4.310950 0.358957 1.125188
H -0.623993 2.541957 -4.398837
C -3.093202 0.673847 0.234751
H 4.118130 1.369081 -2.433915
C -3.807904 -0.373428 2.113087
H 2.682634 0.422642 -4.666561
C -2.405080 -0.628170 1.936418
H 4.798360 -2.361833 0.277563
H 6.934078 -2.950925 0.936811
H 8.220800 -4.159182 2.504523
H 9.170420 -3.080065 1.788453
H 10.601569 -3.023456 3.576978
H 9.776767 -5.731862 2.987231
H 10.955346 -4.944638 2.240738
H 6.499993 -0.670627 4.215831
H 4.304479 -0.099226 3.618692
C -2.082843 1.515912 -1.796301
H 1.586500 4.075719 -3.394173
H 9.561187 -3.815988 4.510265
H 2.927975 5.046924 -5.151395
C -2.198364 2.069622 -3.164814
H 3.901124 1.434536 -6.408099
H 5.651169 2.522498 -7.290009
H 11.071158 -5.756629 5.002724
C -3.202535 1.261169 -0.983913
C -2.290641 -2.211465 3.805300
H 4.401425 2.561417 -8.301919
H 6.280389 3.514932 -9.382672
C -2.528906 -2.954463 6.162589
H 6.489579 4.540977 -8.171110
C -3.342650 -3.909747 5.806133
H 4.139759 4.549822 -9.641200
C -3.723152 -4.086651 4.433754
H 4.724533 5.710315 -8.712987
C -6.829286 1.326624 -2.123287
C -3.167417 -3.272891 3.558573
C -5.623710 0.866672 -1.634177
C -4.570730 -5.855696 6.479483
C -4.842717 -6.545623 7.885062
H 5.009735 6.322405 -11.033233
C -3.640398 -7.023265 8.546636
H 5.867590 4.997391 -11.293752
C -3.957347 -7.642430 9.856302
H 6.454465 6.161422 -10.364863
C -4.594295 1.733504 -1.480435
C -4.767198 3.077978 -1.816296
C -5.990528 3.520239 -2.253944
C -7.060178 2.671097 -2.423056
C -8.570919 4.387070 -2.789584
C -10.187777 4.581665 -3.051998
C -10.608513 4.422451 -4.378928
C -10.177577 5.660782 -5.202569
Au -0.131253 0.191251 0.125079
C 1.870491 -1.185419 1.994337
C 2.138972 0.981660 -1.683429
C 2.908523 -0.035540 0.181190
C -0.272474 -1.486156 2.664487
C 3.606448 0.999351 -1.726994
C 4.109486 0.424411 -0.622896
C 0.584703 -2.342374 3.454807
C 1.852623 -2.069941 3.075995
N -2.015991 0.059988 0.767141
H 11.886904 -6.467785 3.824376
H 12.247962 -4.971173 4.257812
C -0.015612 1.641514 -2.555916
C -0.903068 2.175765 -3.569618