18
H12 C6
H -1.415889 -0.802877 1.694900
H 2.319309 -0.192326 0.262971
H 1.500148 1.114152 0.541880
C -1.422118 -0.207174 -0.263356
H 0.971321 -0.740906 -1.515262
H -0.622929 1.544103 -0.980253
H 1.431839 0.745352 -1.721077
H 0.880273 -0.394690 2.129909
H -0.899597 0.501237 -2.120084
H -1.016635 0.704090 1.523887
C -0.563344 0.605565 -1.215178
H -2.325993 0.143788 -0.274096
C 0.558505 -0.562748 1.230659
C 1.427862 0.191381 0.253632
C 0.897176 0.160121 -1.163146
C -0.898992 -0.185684 1.155136
H 0.645834 -1.513477 1.058704
H -1.456832 -1.125863 -0.574648