105
Sn1 H26 C58 I4 N4 O4 F8
H -3.774706 -1.301027 -3.405042
H -4.599321 0.769808 -2.368333
Sn -0.047674 -0.018803 -0.108987
H -4.953157 1.775489 1.208546
H -6.881581 3.018065 1.314337
H -5.700573 5.136383 -1.841170
I -2.886926 -5.869773 -7.444247
H -3.824521 3.765237 -2.003685
H -2.800318 4.036829 1.430456
H -0.830956 4.121672 2.846812
N -1.740292 -0.095165 -1.320635
H 3.559720 1.111046 3.381798
N -0.719500 1.757903 0.755696
H 4.446413 -0.897705 2.210626
N 1.652404 0.066512 1.081365
H 2.676905 -4.128586 -1.614876
N 0.617760 -1.818891 -0.930531
H 0.645272 -4.273647 -2.904220
F -4.958240 -0.985633 4.742847
I 8.286809 -5.158394 0.248583
O -1.208585 -0.975683 1.336340
O 0.251212 -2.301435 2.227474
O 1.096189 0.944543 -1.549243
H 1.064724 1.519766 5.026375
O -0.260250 2.461821 -2.380824
H 2.771674 5.752099 4.470042
H 2.008936 4.557504 2.612781
F -3.346069 -0.304101 2.793781
H 3.425631 -4.337870 1.214057
H 5.471692 -5.418719 1.342281
H 7.183235 -2.519127 -0.703898
H 5.221875 -1.302967 -0.676842
F 2.701966 0.044126 -3.569556
H -1.325252 -1.650200 -5.156377
H -1.859016 -3.029455 -6.951294
F 4.580523 0.862461 -5.265267
H -2.837058 -5.945140 -4.411209
F 4.811746 3.436858 -5.929144
H -2.255686 -4.593644 -2.650990
F 3.196379 5.289926 -4.806231
H -0.747119 -3.514859 4.060311
H 1.432113 4.224225 -3.312753
I 2.898453 5.474984 7.491318
C -3.790402 0.347582 -2.187474
F -4.481941 -3.089922 6.229432
C -2.050366 -1.047816 -2.246042
C -3.326890 -0.789133 -2.772227
C -2.795182 0.775404 -1.235682
H 1.736614 2.713216 6.836510
C -2.886819 1.902169 -0.402246
C -1.934222 2.339941 0.489770
C -2.078070 3.451782 1.396433
C -0.992280 3.499041 2.174637
C -0.117467 2.419536 1.799824
C 1.066354 2.071308 2.410278
F -2.230443 -4.549991 5.842975
C 1.916659 0.989315 2.092047
C -4.189981 2.683194 -0.393859
C 3.148430 0.658499 2.681878
C -5.103154 2.451871 0.586959
C 3.643908 -0.465778 2.027879
C -6.241156 3.205535 0.668193
C 2.714753 -0.826443 1.045413
C -6.435085 4.252706 -0.220426
C 2.788275 -1.955695 0.209695
C -5.557076 4.461642 -1.218185
C 1.813301 -2.383518 -0.693662
C -4.424401 3.643307 -1.305350
C 1.951822 -3.547593 -1.569257
C 0.844721 -3.609776 -2.284854
C -0.015174 -2.485499 -1.963115
C -1.220306 -2.169606 -2.578792
C 1.503228 2.882181 3.605705
C 1.407329 2.374764 4.901809
C 2.403614 4.904389 4.577113
C 1.975264 4.173111 3.458388
C 4.090372 -2.694435 0.256853
C 4.183074 -3.940592 0.847803
C 5.406321 -4.607200 0.892287
C 6.481456 -4.097295 0.302027
C 6.424982 -2.871036 -0.296694
C 5.244358 -2.152195 -0.299901
C -3.854335 -1.801480 4.496630
C -1.663573 -3.025251 -3.687607
C -3.620980 -2.878498 5.278675
C -1.598575 -2.525296 -5.003925
C -1.943812 -3.338656 -6.080083
C -2.408389 -4.599738 -5.834434
C -2.521337 -5.084769 -4.565323
C -2.156921 -4.271409 -3.517763
C -0.839907 -1.724373 2.214137
C -1.861765 -2.055189 3.310763
C -2.997636 -1.371170 3.539896
C -2.504289 -3.537643 5.108972
C -1.570871 -3.089922 4.133424
C 0.779722 1.859884 -2.352889
C 1.895348 2.225523 -3.314924
C 2.780817 1.364904 -3.828953
C 3.766446 1.755416 -4.729734
C 3.879394 3.056295 -5.080054
C 3.007778 3.969149 -4.483392
C 2.023214 3.593560 -3.656655
C 1.794122 3.086143 5.985377
C 2.275748 4.362148 5.819135
I -8.111615 5.479959 0.033887