105
Sn1 H30 C58 I4 N4 O4 F4
H 4.324463 -3.623488 5.049233
H -4.216085 -0.159347 -3.004102
H -3.267807 -4.439572 -0.727153
H -4.073881 -6.354267 -1.695621
H -0.178632 -4.452280 -3.238765
H -2.938088 -1.366842 6.707523
H -1.568811 -3.236705 6.813168
H 0.233286 -2.109696 3.402959
H -6.866450 3.184928 -2.374723
H -4.141544 4.240157 -5.000615
H -2.516078 3.170768 -3.763299
H 3.890717 -0.118005 -4.017682
C -1.935990 -1.783552 -1.586200
C 5.672727 -3.527037 3.645831
C -3.094949 -1.736092 -2.421418
C -3.491820 -0.469173 -2.510323
C 5.927163 -3.091656 2.407648
C -2.617731 0.330986 -1.722532
C 4.921595 -2.413090 1.695703
C -2.640861 1.727343 -1.606818
C -1.752163 2.517697 -0.853460
C -1.867816 3.933273 -0.647635
C -0.857378 4.297659 0.169651
C -0.089202 3.124484 0.488522
H -1.007884 -6.319946 -4.261535
C 1.078280 3.102127 1.269703
C 1.890282 1.972098 1.511280
C 3.045590 1.932090 2.322600
C 3.482634 0.671446 2.382139
C 2.568371 -0.150286 1.593994
C 2.617067 -1.527423 1.453625
H 0.236683 1.166957 -6.572405
C 1.724716 -2.330328 0.730856
H 2.333158 0.994491 -7.550879
C 1.790456 -3.745120 0.587673
C 0.750801 -4.133825 -0.181800
C 0.014277 -2.967318 -0.528011
C -1.176335 -2.919073 -1.307407
C -3.709734 2.453762 -2.376774
C -4.980694 2.513382 -1.947000
C 1.467846 4.368261 1.944851
C 0.681409 4.874637 2.947938
I 7.154297 -4.548809 4.732378
C 1.001584 6.016041 3.632156
C 2.144718 6.727163 3.278597
C 2.917763 6.258050 2.256404
C 2.601241 5.095857 1.593608
C 3.683504 -2.241683 2.201869
C 3.508200 -2.671965 3.489345
C 4.494289 -3.323075 4.186109
C -1.653554 -4.205996 -1.878742
C -2.801557 -4.817490 -1.437340
C -5.985045 3.180182 -2.671618
C -3.286080 -5.974583 -2.011891
C -5.635652 3.816779 -3.808545
C -2.605557 -6.563720 -3.051711
C -4.376866 3.799913 -4.214372
C -3.401733 3.137036 -3.480329
C -0.975465 -4.821412 -2.934081
C -0.993726 0.156050 2.880646
C -1.222596 -0.840619 4.002536
C -2.173382 -0.616653 4.992692
C -2.302425 -1.514871 6.045025
C -1.481901 -2.636664 6.108729
C -0.532334 -2.858669 5.118862
C -0.402072 -1.960843 4.065002
C 1.781934 -0.091058 -2.483910
C 1.902456 0.242734 -3.944113
C 3.158807 0.140360 -4.530162
C -1.455119 -5.954972 -3.532081
I 2.638615 8.446721 4.341682
N -1.694945 -0.509181 -1.141982
N -0.682073 2.065450 -0.133329
N 1.639499 0.702825 1.059472
N 0.626626 -1.890633 0.033481
O -1.046074 -0.368761 1.727797
C 0.808018 0.627908 -4.709228
O -0.780682 1.348052 3.121001
O 0.887149 0.500824 -1.874863
C 0.968714 0.909141 -6.060102
O 2.607328 -0.863761 -1.990415
C 2.225066 0.807160 -6.646150
F -2.913558 0.395313 4.944556
C 3.319503 0.422769 -5.881036
F 0.295495 -3.962418 5.152347
I -7.083743 4.845611 -4.923114
I -3.362776 -8.300145 -3.929334
H 6.759946 -3.236665 2.020634
H 5.116475 -2.073885 0.852131
F -0.388681 0.732635 -4.191852
F 4.466289 0.340400 -6.500472
Sn -0.020906 0.091723 -0.041885
H -3.501231 -2.465022 -2.831644
H -2.515409 4.493894 -1.009792
H -0.686480 5.159831 0.474404
H 3.437262 2.662000 2.746120
H 4.233816 0.371504 2.840998
H 2.434567 -4.303427 0.959437
H 0.552718 -5.005410 -0.439062
H -5.203599 2.097260 -1.144837
H -0.101619 4.425763 3.171954
H 0.459101 6.315512 4.326391
H 3.674447 6.734733 2.001724
H 3.148021 4.793640 0.904679
H 2.692643 -2.513737 3.906876