105
Sn1 H30 C58 I4 N4 O4 F4
Sn -0.035901 0.029203 -0.022905
H -2.525704 -4.362570 -0.991505
H -0.654029 -5.061383 0.422347
H 3.408262 -2.520024 2.818869
H 4.223831 -0.245479 2.851171
H 2.399614 4.424726 1.043423
H 0.495634 5.148650 -0.360328
H -3.578583 2.628449 -2.698025
H -4.336834 0.305597 -2.845020
H -0.155338 -4.405782 3.093384
H 0.453272 -6.354157 4.196926
H 3.818955 -6.507519 2.069568
H 3.221024 -4.547118 1.001492
H 3.012940 2.116386 4.014195
H 4.732077 3.103170 5.130626
H 6.657672 3.741608 1.762170
H 4.929652 2.752256 0.592034
H -3.300548 4.636139 -0.800884
H -3.865904 6.649577 -1.758383
H -0.854525 6.398050 -4.231285
H -0.153957 4.440584 -3.207136
H -5.352557 -1.867766 -1.181775
H -6.921881 -2.973710 -2.456947
H -4.078545 -4.087888 -5.010930
H -2.489927 -2.978561 -3.715454
H -3.455016 0.578933 3.069334
H -1.848901 -0.484939 7.356625
H -0.330810 -0.119227 5.455339
H 3.120733 0.753616 -3.052189
H 2.533518 -1.755048 -6.879140
H 0.988814 -1.828835 -5.185986
C -1.803692 -2.399234 -0.803079
C -1.878226 -3.802811 -0.628798
C -0.844530 -4.190904 0.155986
C -0.099194 -3.020509 0.501611
C 1.072573 -2.997273 1.277198
C 1.863118 -1.855822 1.535110
C 3.027554 -1.799972 2.369766
C 3.472312 -0.548453 2.393809
C 2.591349 0.256677 1.591477
C 2.643889 1.643540 1.437209
C 1.733601 2.449486 0.753881
C 1.766591 3.866516 0.652750
C 0.702349 4.273769 -0.121288
C -0.025882 3.094813 -0.492043
C -1.207423 3.048340 -1.237943
C -1.993081 1.932164 -1.495727
C -3.169735 1.895067 -2.297641
C -3.592500 0.610120 -2.377876
C -2.680990 -0.200718 -1.607499
C -2.709093 -1.602664 -1.514974
C 1.472122 -4.264283 1.955352
C 0.653474 -4.818294 2.891570
C 1.012702 -5.988281 3.549026
C 2.199131 -6.604665 3.232123
C 3.021445 -6.081636 2.286332
C 2.658551 -4.908795 1.648430
C 3.768003 2.336564 2.182551
C 3.739900 2.450301 3.538865
C 4.767487 3.045486 4.202787
C 5.819511 3.546909 3.563635
C 5.908707 3.424611 2.213277
C 4.877454 2.825349 1.517758
C -1.636297 4.335326 -1.875690
C -2.766521 4.994106 -1.473114
C -3.114751 6.196706 -2.065722
C -2.410958 6.715251 -3.059197
C -1.332053 6.058101 -3.509891
C -0.921507 4.871808 -2.905369
C -3.755008 -2.305472 -2.305689
C -5.084395 -2.311179 -1.953518
C -6.030117 -2.963437 -2.718548
C -5.642786 -3.597757 -3.864036
C -4.335393 -3.632001 -4.242354
C -3.383561 -2.971590 -3.457516
C -0.778549 0.444609 2.915456
C -1.751152 0.261162 4.076599
C -3.098867 0.395690 3.908992
C -3.894300 0.265238 4.972130
C -3.439767 -0.048661 6.206570
C -2.149480 -0.248415 6.509604
C -1.250189 -0.044584 5.339069
C 0.825757 -0.656076 -2.875520
C 1.868006 -0.550084 -3.947833
C 2.986010 0.253009 -3.823628
C 3.895077 0.297851 -4.850438
C 3.693469 -0.444092 -5.964460
C 2.645111 -1.243107 -6.112117
C 1.733601 -1.279797 -5.093479
I 2.702050 -8.399596 4.203462
I 7.402434 4.440095 4.617863
I -2.956276 8.571331 -3.880214
I -7.066379 -4.605088 -5.044117
N -0.695463 -1.946323 -0.107741
N 1.644405 -0.596965 1.066261
N 0.620484 2.009212 0.062159
N -1.732824 0.638656 -1.078820
O -1.174433 0.241186 1.776108
O 0.328458 0.958262 3.231813
O 1.130001 -0.120001 -1.760077
O -0.238486 -1.208049 -3.145540
F -5.272562 0.399766 4.866419
F -4.396486 -0.236185 7.175689
F 4.976425 1.121326 -4.780208
F 4.675847 -0.346253 -6.945698