105
Sn1 H26 C58 I4 N4 O4 F8
C 4.201640 4.759046 3.113298
C 3.456260 3.731400 2.641443
O -0.545808 1.103674 -1.639521
H -0.245615 -4.534294 -2.400677
Sn 0.008313 -0.023611 0.028277
N 1.982133 0.566406 -0.265022
O -1.709991 -0.301037 -2.933211
H -4.569345 -2.324816 -0.249275
C -4.479839 3.205855 1.626361
C -5.583545 3.832993 2.195846
H -5.066663 -0.278843 0.972060
C -6.203435 3.272281 3.248590
O 0.563946 -1.146989 1.714432
O 1.803725 0.285073 2.890641
F -0.982754 1.365469 -5.369493
C -2.710886 2.918661 -2.644735
C -3.292977 3.981474 -3.295001
H -2.805865 -3.246005 -3.451153
H 4.579243 2.323388 0.173919
H -4.078135 -4.960709 -4.255269
H 5.026184 0.268760 -1.078756
H 3.953548 -1.020018 -3.839517
C -3.031414 4.213964 -4.633680
H -4.279584 -6.515698 -0.609381
H 5.796450 -2.040592 -4.843811
C -2.248236 3.342614 -5.281016
F 2.948253 -2.932671 1.515994
N -0.374960 1.736672 1.101726
H -2.909024 -4.848547 0.183217
H 6.255697 -4.301843 -1.605881
F 4.012649 -4.923491 2.991943
F 2.004812 -3.147578 6.838280
F 0.964606 -1.174341 5.395616
H 4.389300 -3.340798 -0.650858
H -6.241354 1.683883 4.475611
H 3.464833 -4.746232 5.407664
H -4.350887 0.664443 3.564550
I 5.518981 7.498524 3.027204
C 1.605663 -2.131654 -1.602733
C 1.436327 -3.380068 -2.269032
C 0.136071 -3.743456 -2.092853
F -2.937675 2.756504 -1.339025
F -4.079179 4.821565 -2.610490
F -1.979113 3.539938 -6.571237
H 0.274563 4.451339 2.542237
I -7.853399 4.228031 4.143055
H -4.058012 3.597083 0.894030
C -0.551855 -2.725578 -1.366766
C -1.894446 -2.711902 -1.005389
C -2.547598 -1.707701 -0.268941
C -3.952177 -1.676441 0.003865
H -2.057068 3.776824 2.817356
C 2.966396 -0.156463 -0.869003
C -4.227347 -0.560879 0.686553
H 2.367870 5.060405 -0.001858
C 2.787989 -1.412692 -1.496757
H 3.577351 6.838350 0.762490
H 4.659784 4.671384 3.916978
H 3.445511 2.929094 3.114013
H -3.388107 4.952345 -5.070340
H -5.892129 4.639910 1.850105
C 2.567248 1.713228 0.286495
C 3.950660 1.674154 -0.047648
C 4.201640 0.541008 -0.745376
C -2.741124 -3.848956 -1.540940
C -3.093403 -3.913428 -2.870453
C -2.943722 0.134638 0.901836
C -3.850878 -4.933259 -3.353249
C -2.812185 1.385006 1.547057
C -4.286312 -5.935507 -2.495116
C -1.584501 2.086385 1.649592
C -3.961248 -5.867128 -1.195923
C -3.162951 -4.851204 -0.710978
C 3.994506 -2.039830 -2.148842
C 4.413310 -1.686210 -3.381774
C 5.523063 -2.293811 -3.991399
C 6.183775 -3.258938 -3.304223
C 5.784626 -3.643817 -2.064345
C 4.679409 -3.055754 -1.487676
C -3.996023 2.000422 2.134707
C -5.787655 2.078570 3.765518
C -4.656734 1.463154 3.201267
C -1.347128 0.791082 -2.611816
C -1.918636 2.018005 -3.303250
C -1.703943 2.229005 -4.647268
C 1.398529 -0.830489 2.629015
C 1.920144 -1.996848 3.422981
C 0.553363 2.692032 1.406678
C 2.686690 -2.995189 2.829587
C 1.894441 2.686171 1.022838
C 3.238543 -3.995483 3.616698
C 3.058624 -4.077539 4.904941
C 2.242184 -3.129994 5.498244
C 1.729641 -2.102348 4.772917
I 7.807886 -4.242822 -4.220877
N 0.393098 -1.752636 -1.074706
C -1.404582 3.313308 2.343139
C -0.114909 3.682558 2.194445
N -1.974578 -0.623397 0.299002
H 2.087620 -3.853449 -2.733423
I -5.482548 -7.479712 -3.196125
C 2.726000 3.832993 1.507084
C 2.821252 4.985676 0.805890
C 3.563607 6.044581 1.246503
C 4.284796 5.937127 2.398882