63
Co1 H20 C36 Br2 N4
C 0.932634 -2.681593 -1.062101
C -1.796344 2.147428 -1.141855
H 3.142741 -0.634558 4.957098
C 0.079694 2.972368 3.074342
C 0.469548 3.599150 4.261441
H 1.733192 -5.335035 -1.772198
C 0.742661 -3.598504 -2.170981
C 0.389854 1.660649 2.506098
C -1.656341 2.970214 -0.060582
H 4.415625 -2.441757 5.510280
C 1.182486 -4.904408 -2.384935
H 1.031972 -6.407241 -3.710674
C 1.229871 0.756015 3.066673
H 4.631790 -4.302503 4.046797
Br -1.971671 -1.154916 0.799835
C 0.764631 -5.531190 -3.547494
H -0.297452 -5.326527 -5.253336
C 1.606802 -0.443701 2.531405
N -0.234774 1.529477 1.292926
H 3.511401 -4.256517 2.055929
C -0.043078 -4.882869 -4.476929
H -0.999556 -3.159218 -4.885289
H 2.090307 -3.791514 0.090022
N 1.186363 -0.946635 1.327435
C 2.502820 -1.380643 3.174034
C -0.469548 -3.599150 -4.261441
H -1.585435 -0.973364 -3.898118
C 3.200681 -1.363412 4.382605
C -0.079694 -2.972368 -3.074342
H -3.142741 0.634558 -4.957098
C 3.963158 -2.436050 4.697784
C -0.389854 -1.660649 -2.506098
H -4.415625 2.441757 -5.510280
C 4.101007 -3.575457 3.815129
Br 1.971671 1.154916 -0.799835
C -1.229871 -0.756015 -3.066673
H -4.631790 4.302503 -4.046797
C 3.433301 -3.540995 2.644133
N 0.234774 -1.529477 -1.292926
C -1.606802 0.443701 -2.531405
C 2.629900 -2.464050 2.296746
H -3.511401 4.256517 -2.055929
N -1.186363 0.946635 -1.327435
C -2.502820 1.380643 -3.174034
C 1.796344 -2.147428 1.141855
C -0.932634 2.681593 1.062101
Co 0.000000 0.000000 0.000000
H -2.090307 3.791514 -0.090022
C -3.200681 1.363412 -4.382605
C 1.656341 -2.970214 0.060582
C -0.742661 3.598504 2.170981
H -1.733192 5.335035 1.772198
C -3.963158 2.436050 -4.697784
C -1.182486 4.904408 2.384935
H -1.031972 6.407241 3.710674
C -4.101007 3.575457 -3.815128
C -0.764631 5.531190 3.547494
H 0.297452 5.326527 5.253336
C -3.433301 3.540995 -2.644133
H 0.999556 3.159218 4.885289
C 0.043078 4.882869 4.476929
C -2.629900 2.464050 -2.296746
H 1.585435 0.973364 3.898118