45
P1 H20 C24
C 0.161510 3.544612 -2.009400
C -0.161510 -3.544612 -2.009400
P -0.000000 -0.000000 -0.000000
C -0.835546 3.376641 -2.913325
C 0.835546 -3.376641 -2.913325
C -1.589261 2.230995 -2.949971
C 1.589261 -2.230995 -2.949971
H -4.328173 0.663290 2.000720
H 4.328173 -0.663290 2.000720
C -1.352379 1.236092 -2.070476
C 1.352379 -1.236092 -2.070476
H -4.054058 -1.011786 3.524062
H 4.054058 1.011786 3.524062
H -2.141044 -2.265860 3.582543
H 2.141044 2.265860 3.582543
H -0.451690 -1.852372 2.110313
H 0.451690 1.852372 2.110313
C -3.544612 0.161510 2.009400
H 1.119309 2.616983 -0.481607
H -2.616983 1.119309 0.481607
H -1.119309 -2.616983 -0.481607
H 2.616983 -1.119309 0.481607
C 3.544612 -0.161510 2.009400
C -3.376641 -0.835546 2.913325
H 0.663290 4.328173 -2.000720
H -0.663290 -4.328173 -2.000720
C 3.376641 0.835546 2.913325
C -2.230995 -1.589261 2.949971
C 2.230995 1.589261 2.949971
H -1.011786 4.054058 -3.524062
H 1.011786 -4.054058 -3.524062
C -1.236092 -1.352379 2.070476
C 1.236092 1.352379 2.070476
H -2.265860 2.141044 -3.582543
H 2.265860 -2.141044 -3.582543
H -1.852372 0.451690 -2.110313
H 1.852372 -0.451690 -2.110313
C -0.340679 1.381882 -1.082572
C 0.340679 -1.381882 -1.082572
C -1.381882 -0.340679 1.082572
C 1.381882 0.340679 1.082572
C 0.422080 2.523867 -1.090970
C -0.422080 -2.523867 -1.090970
C -2.523867 0.422080 1.090970
C 2.523867 -0.422080 1.090970