45
P1 H20 C24
P 0.000000 0.000000 0.000000
C -2.460790 -1.408135 2.875608
C 2.460790 1.408135 2.875608
C -1.432050 -1.275423 1.957461
C 1.432050 1.275423 1.957461
C -1.411583 -0.183127 1.088983
C 1.411583 0.183127 1.088983
C 0.183127 -1.411583 -1.088983
C -0.183127 1.411583 -1.088983
C -2.394649 0.800371 1.165746
C 2.394649 -0.800371 1.165746
C -0.800371 -2.394649 -1.165746
C 0.800371 2.394649 -1.165746
C -0.649776 -3.425113 -2.085399
C 0.649776 3.425113 -2.085399
C 0.444674 -3.457860 -2.928289
C -0.444674 3.457860 -2.928289
C 1.408135 -2.460790 -2.875608
C -1.408135 2.460790 -2.875608
H -4.112290 1.303861 2.134678
H 4.112290 -1.303861 2.134678
C 1.275423 -1.432050 -1.957461
C -1.275423 1.432050 -1.957461
H -4.169792 -0.538090 3.550236
H 4.169792 0.538090 3.550236
H -2.483735 -2.153267 3.464156
H 2.483735 2.153267 3.464156
H -0.741512 -1.926793 1.919109
H 0.741512 1.926793 1.919109
H -2.361040 1.561854 0.598580
H 2.361040 -1.561854 0.598580
H -1.561854 -2.361040 -0.598580
H 1.561854 2.361040 -0.598580
H -1.303861 -4.112290 -2.134678
H 1.303861 4.112290 -2.134678
H 0.538090 -4.169792 -3.550236
H -0.538090 4.169792 -3.550236
H 2.153267 -2.483735 -3.464156
H -2.153267 2.483735 -3.464156
C -3.425113 0.649776 2.085399
C 3.425113 -0.649776 2.085399
H 1.926793 -0.741512 -1.919109
H -1.926793 0.741512 -1.919109
C -3.457860 -0.444674 2.928289
C 3.457860 0.444674 2.928289