59
Co1 H16 C32 Br2 N8
C -3.527599 -0.489699 -4.205083
C -0.405283 1.525303 2.485793
C 1.596583 0.372120 2.454492
C 3.496374 -3.392792 -2.569009
N -0.743378 -1.200560 -3.043112
H -3.093007 -1.032503 -4.822752
C -4.828726 -0.049530 -4.408924
C 2.903093 0.074725 3.021735
C 3.452012 -4.063598 -3.790529
H -4.167094 4.601535 4.043239
H -5.278930 -0.295004 -5.184971
Co 0.000000 0.000000 0.000000
H -2.361840 4.415087 5.431481
H -0.537054 3.084760 4.874491
C 1.338812 -2.453233 -3.130145
C -5.480150 0.767927 -3.456138
C 0.405283 -1.525303 -2.485793
H 4.167094 -4.601535 -4.043239
C -2.364510 3.945588 4.628797
H -6.360231 1.028368 -3.605965
C -4.846815 1.181609 -2.323178
Br 1.179671 1.999282 -0.727415
H 2.361840 -4.415087 -5.431481
C -1.596583 -0.372120 -2.454492
C -1.275285 3.146866 4.311966
H -5.272147 1.735051 -1.708433
C -3.544396 0.747900 -2.118574
H 0.537054 -3.084760 -4.874491
C -2.903093 -0.074725 -3.021735
N -1.453162 0.259493 -1.243660
C -2.606991 0.932668 -0.996302
H -4.216667 3.491572 1.989322
C 2.417270 -2.566721 -2.252177
N -0.912641 1.111406 1.280306
C -2.125906 1.740219 1.092497
C 2.364510 -3.945588 -4.628797
N 2.930011 -1.646112 -0.077872
N -2.930011 1.646112 0.077872
C -2.417270 2.566721 2.252178
C 1.275285 -3.146866 -4.311966
N 0.743378 1.200560 3.043112
C 5.480150 -0.767927 3.456138
C -3.496374 3.392792 2.569009
C 4.846815 -1.181609 2.323178
C 3.527599 0.489699 4.205083
H 6.360231 -1.028368 3.605965
C 3.544396 -0.747900 2.118574
C -3.452012 4.063598 3.790529
H 5.272147 -1.735051 1.708433
H 3.093007 1.032503 4.822752
C 4.828726 0.049530 4.408924
Br -1.179671 -1.999282 0.727415
N 1.453162 -0.259493 1.243660
C 2.606991 -0.932668 0.996302
H 4.216667 -3.491572 -1.989322
H 5.278930 0.295004 5.184971
N 0.912641 -1.111406 -1.280306
C 2.125906 -1.740219 -1.092497
C -1.338812 2.453233 3.130145