59
Fe1 H16 C32 Br2 N8
C -3.537270 -0.485664 -4.194135
C -0.412222 1.521172 2.506568
C 1.596983 0.363763 2.468439
C -4.840486 -0.057504 -4.397741
H -3.100840 -1.027475 -4.811512
N -1.464314 0.269000 -1.254428
C 2.914414 0.067411 3.025878
H -5.289622 -0.315606 -5.170270
Fe 0.000000 0.000000 0.000000
C 3.537270 0.485664 4.194135
C 4.840486 0.057504 4.397741
H 3.100840 1.027475 4.811512
N 0.928038 -1.110673 -1.294844
H 4.231715 -3.472098 -2.020277
H 5.289622 0.315606 5.170270
C 2.123137 -1.735468 -1.116402
N 2.937889 -1.649103 -0.071682
H 4.175288 -4.600174 -4.051405
C 2.422504 -2.572188 -2.274746
H 2.351518 -4.421329 -5.459269
H 0.547799 -3.076718 -4.904377
C 3.505610 -3.385432 -2.595026
N -0.747772 -1.189069 -3.050280
N -0.928038 1.110673 1.294844
H -4.231715 3.472098 2.020277
C 3.459520 -4.060624 -3.803699
N -2.937889 1.649103 0.071682
C -2.123137 1.735468 1.116402
N 1.464314 -0.269000 1.254428
C 2.358108 -3.947123 -4.659303
H -4.175288 4.600174 4.051405
C -2.422504 2.572188 2.274746
C 5.497155 -0.759402 3.459018
C 1.283186 -3.146800 -4.339786
N 0.747772 1.189069 3.050280
H -2.351518 4.421329 5.459269
C -3.505610 3.385432 2.595026
C 4.857069 -1.179808 2.309062
C 1.341552 -2.447918 -3.137976
H -0.547799 3.076718 4.904377
H 6.375980 -1.020454 3.614811
C -2.914414 -0.067411 -3.025878
C 3.554499 -0.745402 2.104693
C -3.459520 4.060624 3.803699
C -5.497155 0.759402 -3.459018
C 0.412222 -1.521172 -2.506568
H 5.283054 -1.733120 1.694888
Br -1.200268 -2.022774 0.716053
C 2.627538 -0.939668 0.998204
C -2.358108 3.947123 4.659303
H -6.375980 1.020454 -3.614811
C -4.857069 1.179808 -2.309062
Br 1.200268 2.022774 -0.716053
C -1.596983 -0.363763 -2.468439
C -1.283186 3.146800 4.339786
C -3.554499 0.745402 -2.104693
H -5.283054 1.733120 -1.694888
C -1.341552 2.447918 3.137976
C -2.627538 0.939668 -0.998204