45
P1 H20 C24
C -0.554647 3.440545 2.920474
C 0.554647 -3.440545 2.920474
P 0.000000 0.000000 0.000000
C 0.537314 3.457878 2.076883
C -0.537314 -3.457878 2.076883
C -1.408717 -0.222942 -1.082245
C 1.408717 0.222942 -1.082245
C -0.222942 1.408717 1.082245
C 0.222942 -1.408717 1.082245
C -1.393117 -1.307104 -1.971150
C 1.393117 1.307104 -1.971150
C -2.407081 -1.477614 -2.883468
C 2.407081 1.477614 -2.883468
C -3.440545 -0.554647 -2.920474
C 3.440545 0.554647 -2.920474
C -3.457878 0.537314 -2.076882
C 3.457878 -0.537314 -2.076882
H -1.928893 0.674394 1.943388
H 1.928893 -0.674394 1.943388
C -2.421381 0.714975 -1.157768
C 2.421381 -0.714975 -1.157768
H -2.215468 2.398437 3.480832
H 2.215468 -2.398437 3.480832
C 0.714975 2.421381 1.157768
C -0.714975 -2.421381 1.157768
H -0.676583 4.152053 3.538132
H 0.676583 -4.152053 3.538132
H 1.163004 4.169646 2.120875
H -1.163004 -4.169646 2.120875
H -0.674394 -1.928893 -1.943388
H 0.674394 1.928893 -1.943388
H -2.398437 -2.215468 -3.480832
H 2.398437 2.215468 -3.480832
H -4.152053 -0.676583 -3.538132
H 4.152053 0.676583 -3.538132
H -4.169646 1.163004 -2.120875
H 4.169646 -1.163004 -2.120875
C -1.307104 1.393117 1.971150
C 1.307104 -1.393117 1.971150
H -2.412411 1.476054 -0.588823
H 2.412411 -1.476054 -0.588823
C -1.477614 2.407081 2.883468
C 1.477614 -2.407081 2.883468
H 1.476054 2.412411 0.588823
H -1.476054 -2.412411 0.588823