45
P1 H20 C24
C 3.375146 -0.738784 2.942442
C -3.375146 0.738784 2.942442
P 0.000000 0.000000 0.000000
C 3.502225 0.260621 2.055952
C -3.502225 -0.260621 2.055952
C -0.325237 -1.384951 -1.079739
C 0.325237 1.384951 -1.079739
C 1.384951 -0.325237 1.079739
C -1.384951 0.325237 1.079739
C -1.333258 -1.275103 -2.047516
C 1.333258 1.275103 -2.047516
C -1.540031 -2.270200 -2.960846
C 1.540031 2.270200 -2.960846
C -0.738784 -3.375146 -2.942442
C 0.738784 3.375146 -2.942442
C 0.260621 -3.502225 -2.055952
H -0.516460 1.870718 2.067240
H 0.516460 -1.870718 2.067240
C -0.260621 3.502225 -2.055952
C 0.501856 -2.494205 -1.097377
C -0.501856 2.494205 -1.097377
C 2.494205 0.501856 1.097377
C -2.494205 -0.501856 1.097377
H -2.194663 2.221436 3.589725
H 2.194663 -2.221436 3.589725
H 4.054332 -0.889449 3.558767
H -4.054332 0.889449 3.558767
H 4.261644 0.798749 2.073973
H -4.261644 -0.798749 2.073973
H -1.870718 -0.516460 -2.067240
H 1.870718 0.516460 -2.067240
H 1.200643 -2.575191 -0.489770
H -2.221436 -2.194663 -3.589725
H 2.221436 2.194663 -3.589725
H -0.889449 -4.054332 -3.558767
H 0.889449 4.054332 -3.558767
C 1.275103 -1.333258 2.047516
C -1.275103 1.333258 2.047516
H 0.798749 -4.261644 -2.073973
H -0.798749 4.261644 -2.073973
C -2.270200 1.540031 2.960846
C 2.270200 -1.540031 2.960846
H -1.200643 2.575191 -0.489770
H 2.575191 1.200643 0.489770
H -2.575191 -1.200643 0.489770