60
B1 H26 W1 C23 N7 O2
B 0.881234 0.554425 2.669488
C 0.900392 -3.134219 2.418837
C -0.309740 1.497785 -1.876143
C 0.478921 -2.756712 1.152393
C -1.309137 1.925843 3.168904
C 1.647544 -1.845966 4.525809
C -2.017974 -1.376324 -2.601710
H 1.152635 0.720756 3.766319
C -2.420287 2.255245 2.441452
C 3.007745 2.067714 -1.612301
C -2.231902 1.695099 1.171239
C 2.816168 1.874476 -0.119705
C -1.235699 -0.803133 -1.510533
C -3.157861 1.741574 0.014100
N -1.066472 1.055050 1.159931
H -3.604332 0.891596 -0.070800
H 4.367052 2.884695 0.831862
N 0.450184 -1.381216 1.124124
C 3.023710 1.942966 2.072073
N 1.928525 1.228719 1.763000
H 1.016264 -4.007638 2.718204
C -1.663555 -2.555320 -3.217971
N 0.826954 -0.955604 2.369838
H 2.590330 -1.668717 4.488626
H 2.542531 2.859166 -1.894857
C -3.349438 -2.473785 -4.699259
N 1.788035 1.178983 0.409864
H 1.496326 -2.656057 5.023341
H -3.148665 2.757288 2.730549
H 2.658882 1.307009 -2.081582
C 3.461146 2.165556 3.483631
H 3.943730 2.161822 -1.805886
C -0.977069 2.255245 4.574808
O 1.832736 -1.298866 -2.684632
H -2.662728 1.920291 -0.786926
C -3.138703 -0.761550 -3.112434
H -3.810725 2.429664 0.151317
C -3.812417 -1.356756 -4.180997
N -2.286182 -3.110574 -4.237535
C 0.111731 -3.600599 -0.019822
H -0.916403 -3.001651 -2.883626
H -3.798241 -2.841084 -5.427540
N -0.494932 1.170829 2.377376
H 1.200051 -1.117980 4.959152
H -0.911837 1.449606 5.087794
H 3.684940 1.318253 3.882617
H -1.664513 2.817111 4.942869
H 2.746242 2.570117 3.978920
W 0.007640 0.032356 -0.503031
H -0.136969 2.723321 4.603247
H 4.228063 2.736872 3.495108
H -3.442992 0.037525 -2.751460
C 1.117513 -2.008220 3.148174
H -4.581091 -0.962599 -4.525783
H 0.739115 -3.451700 -0.731481
H -0.770804 -3.367050 -0.318492
H 0.128877 -4.526331 0.233090
C 1.184565 -0.802318 -1.838451
O -0.501318 2.278075 -2.652594
C 3.598443 2.369394 0.914935