20
H14 C6
H -2.295223 2.146618 -1.380739
H -3.597666 1.499918 -0.715071
H -2.555680 2.309473 0.189908
C -1.880992 0.427199 -0.318658
H 0.226480 -1.291039 -0.574243
H -0.019558 1.033775 -0.989626
H -2.234821 0.002360 0.503655
H 2.035406 0.197078 1.070788
C 0.379924 -0.640799 0.155467
C -2.650350 1.708798 -0.579717
H 2.234821 -0.002360 -0.503655
H 2.295223 -2.146618 1.380739
H -2.035406 -0.197078 -1.070788
H 3.597666 -1.499918 0.715071
H 2.555680 -2.309473 -0.189908
C -0.379924 0.640799 -0.155467
C 1.880992 -0.427199 0.318658
H -0.226480 1.291039 0.574243
H 0.019558 -1.033775 0.989626
C 2.650350 -1.708798 0.579717