110
H36 Rh2 C56 N4 O12
H 8.939559 -2.271810 -7.080707
C -3.165869 1.016167 3.564589
C -2.622296 1.271678 4.805355
C -3.532234 1.530125 5.865219
H -3.885049 -6.517921 -2.397976
C -4.912075 1.585926 5.664742
H -3.128486 -4.378859 -2.270995
C -5.387951 1.336289 4.392105
H -5.642306 -10.110748 -2.534868
C -4.506884 1.019104 3.358069
H -6.048652 -9.932596 -0.997199
C -5.850885 1.859058 6.844417
C 0.340480 -3.750421 -2.094036
H -4.690703 -10.685852 -1.383924
C -8.032149 2.211486 7.446420
C 1.380837 -3.036755 -2.605424
C 1.216570 -1.712213 -2.189046
N -0.053760 1.556557 1.463560
C 2.214117 -0.707793 -2.448760
O -7.118228 1.979471 6.400450
O -5.473569 1.923669 7.981974
H 3.709732 1.635883 -3.155285
H 3.331331 3.568363 -1.687595
C 3.165869 -1.016167 -3.564589
C 2.622296 -1.271678 -4.805355
C 3.532234 -1.530125 -5.865219
C -2.071753 -2.326025 0.497077
H 1.207013 5.193467 -1.153387
C 4.912075 -1.585926 -5.664742
C -1.560037 -3.124862 -0.492221
H 2.165256 7.312910 -1.184166
C -0.477867 -2.837045 -1.330848
C 5.387951 -1.336290 -4.392105
C 4.506884 -1.019104 -3.358069
C 5.850885 -1.859058 -6.844417
C 8.032149 -2.211486 -7.446420
C -2.096642 -4.569816 -0.546154
N 0.053760 -1.556557 -1.463560
C -1.798970 -5.453823 0.457705
C -2.353495 -6.719627 0.467273
C -3.169852 -7.116109 -0.549356
C -3.393852 -6.229165 -1.637938
C -2.909016 -4.992730 -1.578794
O 7.118228 -1.979471 -6.400450
C -3.780128 -8.464146 -0.511091
O 5.473569 -1.923670 -7.981974
C -5.296360 -9.959028 -1.625847
C 2.384358 0.558011 -1.814745
C 3.164874 1.659348 -2.376709
C 2.954811 2.704885 -1.570090
O -4.590511 -8.702035 -1.588047
O -3.558119 -9.307036 0.349468
Rh -1.123087 0.077240 -1.029647
H -3.709732 -1.635883 3.155285
H -3.331331 -3.568363 1.687595
C -0.590365 0.963303 -2.578285
Rh 1.123087 -0.077240 1.029647
C -2.338562 1.474324 -0.662367
C 0.590365 -0.963303 2.578285
C 2.338562 -1.474324 0.662367
H -1.207013 -5.193467 1.153387
H -2.165256 -7.312910 1.184166
N 1.770099 1.022041 -0.616641
C -2.384358 -0.558011 1.814745
C -3.164874 -1.659349 2.376709
C -2.954811 -2.704885 1.570090
H 3.885049 6.517921 2.397976
H 3.128486 4.378859 2.270995
H 5.642306 10.110748 2.534868
H 6.048652 9.932596 0.997199
H 4.690703 10.685852 1.383924
O -0.314596 1.497819 -3.535862
O -3.091203 2.246728 -0.539282
O 0.314596 -1.497819 3.535862
O 3.091203 -2.246729 0.539282
H -0.181221 4.679656 2.216330
H -2.085860 3.376055 3.143569
C 2.071753 2.326025 -0.497077
C 1.560037 3.124862 0.492221
C 0.477867 2.837045 1.330848
N -1.770099 -1.022041 0.616641
H -1.682560 1.275643 4.945653
H -3.189444 1.667161 6.740314
H -6.320748 1.384660 4.218821
H -4.850530 0.801656 2.500043
C 2.096642 4.569816 0.546154
C 1.798970 5.453823 -0.457705
H -7.987439 1.474177 8.089779
C 2.353495 6.719627 -0.467273
H -7.806367 3.052584 7.897519
C 3.169852 7.116109 0.549356
H -8.939559 2.271810 7.080707
C 3.393852 6.229165 1.637938
C 2.909016 4.992730 1.578794
C 3.780128 8.464146 0.511091
H 0.181221 -4.679656 -2.216330
C 5.296360 9.959028 1.625847
H 2.085860 -3.376055 -3.143569
C -0.340480 3.750421 2.094036
C -1.380837 3.036755 2.605424
C -1.216570 1.712213 2.189046
H 1.682560 -1.275643 -4.945653
C -2.214117 0.707793 2.448760
H 3.189444 -1.667161 -6.740314
H 6.320748 -1.384660 -4.218821
H 4.850530 -0.801656 -2.500043
H 7.987439 -1.474177 -8.089779
O 4.590511 8.702035 1.588047
H 7.806367 -3.052584 -7.897519
O 3.558119 9.307036 -0.349468