121
Ni1 H38 C70 N4 O8
H 3.095128 3.129008 6.791384
H -0.359461 6.658012 -2.055105
H 5.295169 5.780701 1.769815
H 4.929900 -6.343649 -0.824968
H 3.493859 -3.103145 2.175400
H 2.495328 4.396181 4.970929
H -3.678807 -2.609230 -4.124498
H 1.338408 -6.127848 -1.342661
H -3.527518 1.911921 -2.871018
H -1.667067 4.607792 -5.225727
H 2.815281 0.841927 6.748458
H 5.382936 7.942072 2.560406
H -3.147676 -5.292386 -2.295942
H -0.980912 6.595843 -4.270934
H 1.301167 -5.459908 1.854297
H -2.971851 7.576539 1.574577
H -4.720724 -3.450255 -0.369525
H 3.796520 -4.332840 -1.040784
H 2.468944 -7.438170 2.093080
H 1.603205 7.772906 3.855799
H 4.254435 -7.883210 0.715457
H 3.587854 8.929523 3.574469
H -6.622027 -4.533379 -1.159994
H 1.468627 8.598290 0.491696
H -7.012580 -4.687192 -3.391641
H -5.539527 -3.772403 -4.888728
H -2.126124 9.722468 1.840095
H 0.031902 10.214071 1.292462
H 2.581497 -9.319639 -3.450171
H 3.112357 -9.546621 -1.992689
H 1.804751 -10.266578 -2.471622
C 1.721509 -0.516041 2.134742
C 1.646778 3.734238 2.530724
C 0.768895 5.903267 0.001339
H -3.317856 -10.255091 -3.143565
C 1.408469 0.812035 2.449905
H -3.386048 -10.598082 -1.615388
C 1.957119 2.876126 3.755965
C 1.861007 -2.394278 1.010868
H -4.404508 -9.581046 -2.236673
C -3.984415 -2.941728 -2.166707
C 2.397410 -4.699131 0.346142
C -3.641898 -0.066124 -2.403878
C -1.148994 3.516594 -2.190182
C -1.140068 2.273949 -1.390279
C -2.694267 -0.889016 -1.711124
C -0.336294 -6.934447 -2.100103
C 3.047985 4.091679 1.964293
C -0.270489 4.789041 -0.152742
C 2.776670 -1.270840 2.720620
C -1.697230 -6.694768 -2.329564
C -1.447503 -4.443016 -1.551070
C 0.723226 1.594829 1.522104
C 0.412262 -3.526927 -0.571365
C -2.753221 -2.274167 -1.649661
C 0.785087 3.023871 1.526331
C 1.566649 -3.466601 0.196408
C 2.879840 -2.421370 2.026326
C -1.902948 1.149789 -1.726851
C -0.691682 4.718781 -1.630683
C -1.655505 -3.033301 -1.254052
C -0.336917 2.244328 -0.250983
C -1.217083 6.799128 0.854990
C 1.861007 1.474900 3.687726
C 0.139286 3.434594 0.386082
C -0.129331 -4.735616 -1.198803
C -1.484869 3.495643 -3.549302
C 2.268291 6.058598 2.971603
C 0.073274 7.100758 0.523242
C 0.333587 -8.177634 -2.619397
C -1.500023 5.374060 0.616734
C 2.114677 0.732203 4.848228
C -0.644975 5.854501 -2.427227
C 2.758194 2.715377 6.029199
C 3.356043 5.482430 2.375460
C 2.417130 3.470356 4.930043
C 0.440079 -5.965798 -1.520458
C -3.144521 1.176520 -2.451295
C -2.254184 -5.455194 -2.096151
C -1.427783 4.638948 -4.327403
C 2.599599 1.351719 6.001785
C -1.013648 5.820184 -3.759028
C 2.028944 -5.632740 1.301272
C -4.254070 -3.015600 -3.516043
C 1.119301 5.106746 3.013088
C -2.657731 -7.767633 -2.761576
C -2.091021 7.776266 1.355978
C -4.876621 -3.503266 -1.284459
C 3.504260 -4.962651 -0.422895
C 2.727057 -6.819394 1.447955
C 2.334718 7.373490 3.441756
C 4.194691 -6.165561 -0.284431
C 4.562119 6.172387 2.188722
C 3.796126 -7.077676 0.636258
C 3.515884 8.052610 3.272539
C -6.020629 -4.158906 -1.760855
C 0.584766 8.393976 0.696341
C -1.578283 9.047809 1.507955
C -6.253126 -4.247408 -3.083965
C 4.597409 7.452961 2.657532
C -5.381263 -3.694720 -3.976148
C -0.274641 9.344021 1.180859
N 1.179293 -1.211778 1.077121
C 2.326415 -9.461821 -2.536467
N -1.656958 -0.113085 -1.245357
N -0.522914 -2.503912 -0.659527
N 0.023453 1.128476 0.432915
C -3.500532 -9.904332 -2.269743
O 3.751495 3.368850 1.323119
O 1.938644 5.797606 -0.277694
O -2.492908 4.767367 0.927327
O -0.011837 5.346786 3.322699
O 1.543192 -8.347053 -2.077667
O -2.595040 -8.824062 -1.986618
Ni -0.244541 -0.682932 -0.099886
H 3.298189 -1.016802 3.447509
H -4.456280 -0.343877 -2.755774
O -0.123518 -8.887278 -3.450352
O -3.438256 -7.643008 -3.658724
H -1.753050 2.694642 -3.937443
H 1.958198 -0.185097 4.850817