77
Fe1 H28 C44 N4
C -0.972686 0.194606 3.309218
C -1.799197 0.742440 2.338115
C -3.028579 1.428989 2.611335
C -3.564357 1.785433 1.428228
H -7.321791 1.680782 -1.803701
C -2.667240 1.365777 0.398040
H -7.356180 3.941337 -2.365495
C -2.875944 1.581751 -0.955324
C -1.973636 1.202481 -1.938979
C -2.190647 1.420210 -3.339039
C -1.112861 0.914516 -3.981904
C -0.230281 0.398288 -3.004538
C 0.983526 -0.203979 -3.278011
C 1.830803 -0.723720 -2.317253
C 3.103795 -1.318963 -2.601022
C 3.640611 -1.703501 -1.422321
C 2.708191 -1.359348 -0.389511
C 2.887822 -1.643801 0.944503
C 1.960594 -1.320719 1.930204
C 2.121535 -1.629754 3.330968
C 1.049979 -1.111769 3.976109
C 0.218277 -0.483164 3.011703
C -1.353753 0.354391 4.736110
C -2.567560 -0.153059 5.209968
C -2.977701 0.080473 6.511046
C -2.180264 0.786337 7.368041
C -0.965418 1.286763 6.932418
C -0.566700 1.069034 5.620434
C -4.147898 2.268300 -1.365743
C -5.347168 1.564192 -1.408674
C -5.364820 4.238397 -2.094916
H 5.253812 -5.176438 2.534694
H 7.302103 -4.112673 2.355827
C -4.174894 3.623839 -1.714687
H 7.376531 -1.896086 1.587524
C 1.401973 -0.282994 -4.717727
H 5.421710 -0.806703 0.994979
C 1.316830 -1.473480 -5.435911
C 1.676092 -1.527913 -6.776704
C 2.151647 -0.407661 -7.404939
C 2.230560 0.789849 -6.725819
C 1.865068 0.842525 -5.383120
C 4.153546 -2.347909 1.367696
C 4.120319 -3.649016 1.850625
Fe -0.005794 -0.048233 -0.002008
H -3.397154 1.601101 3.470109
H -4.391448 2.234938 1.300993
N -1.565573 0.714346 0.951762
H -2.944484 1.839110 -3.737942
N -0.760867 0.561584 -1.720321
H -0.973258 0.907352 -4.923233
N 1.581604 -0.748302 -0.942859
H 3.496875 -1.424386 -3.458659
N 0.759247 -0.637682 1.728585
H 4.483818 -2.123384 -1.298834
H 2.842447 -2.106879 3.725489
H 0.883680 -1.160934 4.909924
H -3.119100 -0.665811 4.632002
H -3.816702 -0.251757 6.810413
H -2.460810 0.934147 8.263075
H -0.408936 1.776724 7.527147
H 0.265521 1.417084 5.324474
H -5.358351 0.643689 -1.175061
H -5.365017 5.157021 -2.339717
H -3.371757 4.129778 -1.691648
H 1.008861 -2.260343 -5.002792
H 1.592600 -2.343396 -7.257787
H 2.428195 -0.456984 -8.313907
H 2.532361 1.573849 -7.171767
C -6.515289 2.182262 -1.780242
H 1.934241 1.664804 -4.913242
C -6.540209 3.521998 -2.118209
H 3.290092 -4.103718 1.934609
C 5.290517 -4.284644 2.212268
C 6.503285 -3.659551 2.112650
C 6.543780 -2.349665 1.655739
C 5.382928 -1.707013 1.295419