62
H36 C18 N2 O6
C 0.191865 -3.489487 0.006176
O -0.653227 -2.051944 1.715318
H 3.515181 1.686701 1.154548
C 0.166668 -3.186303 1.488923
O -1.015981 0.578527 3.057075
H 4.211952 2.635488 0.062039
H 0.857440 -3.612441 -2.510339
O 2.943314 -0.320691 -0.316064
C -0.871399 -1.859009 3.106520
H 2.374406 4.242539 0.610252
H 1.072192 -2.053581 -2.782911
C -1.689095 -0.633781 3.311836
O 2.241803 2.426920 -0.194981
H 1.693613 3.155467 1.574404
H -1.021200 -2.506463 -3.557607
C -0.804808 0.892047 1.676119
H 0.077879 4.651192 0.712549
H -1.401312 -3.356887 -2.252259
C -0.919393 2.393759 1.568313
H 0.473869 4.224882 -0.775523
C 2.346990 -2.635489 -0.620483
H -3.309368 -1.777872 -2.501712
C 3.194482 -1.480028 -1.102733
H -2.610618 -0.626976 -3.377552
O -2.409803 1.178436 -1.520717
H -4.167719 0.317978 -1.847976
C 3.839999 0.740886 -0.640052
H -3.349883 -0.322543 -0.625720
C 3.524639 1.935537 0.196797
H -3.119513 1.846950 0.202722
C 1.753266 3.472132 0.637496
O -1.431728 -1.387005 -1.962701
H -3.696199 2.617788 -1.079900
C 0.391439 3.895901 0.155280
H -1.554972 3.581735 -1.429086
H -2.214068 4.040689 -0.048719
H 0.617590 -4.373374 -0.125276
H -0.742216 -3.558781 -0.314610
H -0.190846 -3.964721 1.985513
H 1.085451 -3.007493 1.811560
N 0.897175 -2.505860 -0.827885
H -0.002850 -1.764608 3.572287
H -1.342059 -2.643714 3.484315
N -0.620432 2.834755 0.189266
H -2.483294 -0.682876 2.722872
H -2.012034 -0.623962 4.247733
H -1.486341 0.449760 1.110881
H 0.092817 0.590542 1.385042
H 3.752890 0.971418 -1.598919
H -1.835996 2.674635 1.815198
H -0.286234 2.820974 2.198112
C 0.561218 -2.706547 -2.242280
H 2.653571 -3.458221 -1.077403
C -0.906595 -2.562707 -2.575808
H 2.511569 -2.757322 0.348941
C -2.703566 -0.995535 -2.463385
H 4.152359 -1.722446 -1.041380
C -3.266294 0.049246 -1.539854
H 2.985468 -1.289245 -2.051733
H 4.772740 0.453334 -0.474414
C -2.882343 2.215896 -0.685549
C -1.822278 3.268429 -0.529059