77
Ni1 H28 C44 N4
C 4.656361 -3.125606 4.336275
Ni -0.028566 0.042018 -0.048451
C 3.601297 -2.715625 3.526436
C 2.422688 -1.578112 -4.014937
C 3.719324 -1.104889 -4.233349
C 4.532047 -1.673562 -5.207335
C 4.052753 -2.705727 -5.992979
C 2.747521 -3.147749 -5.828343
C 1.939288 -2.587296 -4.845919
N -1.779095 0.940822 0.292040
N 0.340527 0.017694 1.922392
N 1.730174 -0.865510 -0.377438
N -0.378672 0.073555 -2.027570
H -4.565240 2.404609 -0.441163
H -4.163523 2.288526 2.001501
H -0.097240 0.762940 5.032431
H 2.102500 -0.312388 4.607334
H 4.420742 -2.490504 0.393957
H 3.939574 -2.522393 -2.043139
H 0.188040 -0.421945 -5.167487
H 6.673415 -0.633864 3.786881
H -1.962526 0.753714 -4.756887
H 6.515014 -2.630005 4.994172
H -2.815622 3.296535 -3.716224
H -4.658225 4.028194 -4.944373
H -6.668467 2.847536 -4.874725
H -6.829908 0.921145 -3.556293
H -5.003122 0.196532 -2.309484
H -2.608316 3.452342 3.691201
H -3.549856 3.982281 5.757624
H -4.011472 2.305837 7.313303
H -3.556142 0.076205 6.779275
H -2.581298 -0.458465 4.725885
H 4.921282 0.041867 2.401397
H 4.591895 -3.939428 4.821923
H 2.818004 -3.249825 3.465884
H 4.049789 -0.384705 -3.709376
H 5.417408 -1.352857 -5.333018
H 4.614833 -3.110609 -6.643169
H 2.405562 -3.834903 -6.388214
H 1.047025 -2.895788 -4.739583
C -2.567571 1.208887 -2.034539
C -2.695862 1.369591 -0.654404
C -3.814045 2.013751 -0.010506
C -3.591332 1.956716 1.319717
C -2.324075 1.298633 1.512676
C -1.728035 1.078880 2.754368
C -0.451541 0.533693 2.927328
C 0.230710 0.458205 4.194592
C 1.428562 -0.129758 3.963303
C 1.486165 -0.424327 2.559484
C 2.555598 -1.069662 1.940012
C 2.636934 -1.309376 0.573116
C 3.687380 -2.075155 -0.044448
C 3.425667 -2.087904 -1.372570
C 2.222683 -1.319945 -1.581975
C 1.644989 -1.081069 -2.835401
C 0.424173 -0.435567 -3.034845
C -0.172252 -0.182767 -4.321575
C -1.343932 0.460386 -4.098182
C -1.472993 0.614381 -2.671927
C -3.716929 1.672715 -2.875394
C -3.631616 2.811906 -3.674005
C 5.891289 -1.168802 3.718242
C -4.729016 3.245875 -4.409876
C -5.920967 2.549041 -4.370322
C -6.015132 1.408677 -3.585845
C -4.925430 0.977224 -2.845258
C -2.461603 1.444240 4.006538
C -2.781047 2.762419 4.321161
C -3.350787 3.077118 5.549388
C -3.630589 2.084038 6.471612
C -3.351428 0.765523 6.158538
C -2.770271 0.449147 4.933368
C 3.685841 -1.528290 2.804118
C 4.845205 -0.763350 2.899809
C 5.797894 -2.352278 4.436391