77
Ni1 H28 C44 N4
H 5.352501 5.132994 2.369793
H -5.282789 -5.133410 -2.611726
H -7.336239 -4.064667 -2.333242
C 6.535941 2.169316 1.786478
C 6.543277 3.499235 2.142103
C -0.998293 -0.182693 3.279039
C -1.856504 -0.719086 2.316646
C -3.119195 -1.323246 2.604268
C -4.162881 -2.322166 -1.367233
C -4.137732 -3.615501 -1.885135
C -3.658852 -1.714870 1.433347
C -2.717859 -1.348855 0.401288
C -2.893902 -1.630378 -0.960492
H -7.404194 -1.889289 -1.504488
C -1.967579 -1.313490 -1.960687
H -5.429449 -0.794954 -0.919589
C -2.142574 -1.605989 -3.359219
C -1.069548 -1.108445 -4.003543
C -0.222864 -0.491393 -3.019719
C 0.979051 0.162417 -3.306584
C 1.832022 0.711353 -2.338050
C 3.071661 1.388158 -2.616270
C 3.608174 1.752432 -1.436867
C 2.693377 1.331714 -0.410422
C 2.881995 1.577350 0.955076
C 1.981869 1.219523 1.950493
C 2.191444 1.444254 3.358902
C 1.121562 0.944620 4.007850
C 0.230867 0.413802 3.008363
C -1.409060 -0.267882 4.725590
C -1.333613 -1.461046 5.427997
C -1.705610 -1.528117 6.767250
C -2.241075 0.802813 6.723626
C -1.863839 0.865703 5.391893
C -2.174011 -0.395404 7.405242
C 1.383531 0.329136 -4.737568
C 2.593829 -0.164575 -5.209150
C 3.007740 0.069040 -6.511935
C 2.206114 0.779817 -7.378265
C 0.989530 1.251229 -6.942699
C 0.578762 1.043223 -5.633896
C 4.156213 2.252066 1.364319
H 7.345175 1.672068 1.807061
H -4.495204 -2.147625 1.310486
C 5.358128 1.549651 1.398400
H 7.353746 3.922043 2.400117
H -2.876025 -2.063395 -3.753167
C 4.177171 3.600103 1.737380
H -1.023316 -2.243998 4.988589
C 5.356032 4.216284 2.121050
H -3.306923 -4.064667 -1.987762
H -1.637990 -2.348873 7.240631
C -5.314497 -4.254503 -2.252524
Ni 0.002534 -0.042106 0.000018
C -6.531082 -3.618463 -2.098589
C -6.569854 -2.333664 -1.603979
H -3.507224 -1.429566 3.464533
N -1.616540 -0.732500 0.951036
N -0.771427 -0.650099 -1.759459
H -0.902915 -1.156597 -4.937388
N 1.602537 0.688705 -0.969666
H 3.442871 1.548641 -3.475328
N 0.769475 0.577385 1.745217
H 4.434529 2.202451 -1.306962
H -2.547055 1.584876 7.168259
H -1.915814 1.693043 4.928025
H 2.943872 1.866278 3.756334
H 0.981618 0.942878 4.947369
H 3.148072 -0.671422 -4.627353
H -2.448795 -0.441482 8.312805
H 3.846419 -0.264589 -6.808210
H 2.492520 0.944811 -8.269462
H 0.424818 1.723286 -7.543534
H -0.256427 1.388838 -5.343433
H 5.371226 0.632348 1.151997
C -5.393088 -1.685603 -1.248301
H 3.369342 4.100608 1.727851