79
Cs2 Cu1 H28 C44 N4
Cs -0.238591 -1.335317 3.344085
Cs 0.254346 1.363629 -3.309777
Cu -0.018619 0.003605 0.006482
H 2.135166 4.673294 -0.039860
H -0.227472 5.105591 -0.683138
H -4.578337 2.089420 -1.109406
H -5.045518 -0.364480 -0.955008
H -2.122891 -4.687359 -0.039891
H 0.240848 -5.111172 0.587440
H 4.524841 -2.069334 1.251189
H 4.224999 3.160773 -1.440993
H 4.170786 2.820380 2.586753
H -2.908310 3.733766 -3.093667
H -2.749211 4.784017 0.807970
H -4.422397 -2.495343 -2.517347
H -6.230266 -3.954247 -2.708892
H -6.930777 -5.215693 -0.865906
H -5.788023 -5.020001 1.161287
H -4.029007 -3.513552 1.373346
H 2.975839 -4.556482 -0.892279
H 4.262355 -6.460860 -0.489082
H 4.781108 -7.084671 1.690956
H 3.984030 -5.817799 3.482154
H 2.665678 -3.932111 3.087064
C 5.725448 4.168948 -0.501004
C 6.281777 4.462658 0.728905
C 5.696052 3.958786 1.871033
C -4.203485 6.355840 -1.638796
C -3.777139 6.093568 -0.356149
C 2.772425 1.989809 0.451679
C 1.587176 2.610820 0.069236
C 1.449394 4.022093 -0.131776
C 0.152159 4.258956 -0.479677
C -0.533353 3.007458 -0.483196
C -1.880581 2.833472 -0.798266
H 4.987142 0.381983 1.102996
C -2.542097 1.582404 -0.790111
C -3.938119 1.403680 -0.960435
H 6.117418 4.519592 -1.292056
C -4.196686 0.053992 -0.870702
H -4.188027 5.635647 -3.541436
H 7.059098 5.005807 0.787106
C -2.960644 -0.593721 -0.629311
H 6.070404 4.160723 2.720458
H -4.709420 7.138048 -1.824768
C -2.809263 -1.982599 -0.429620
H -3.993552 6.695544 0.346669
C -1.618615 -2.619545 -0.075373
C -1.448437 -4.028234 0.075857
C -0.151002 -4.262944 0.415137
C 0.512313 -2.999818 0.464420
C 1.853542 -2.822817 0.795797
C 2.497260 -1.567012 0.837777
C 3.890082 -1.386135 1.070172
C 4.144250 -0.039892 0.983443
C 2.918806 0.605237 0.683044
C 3.995269 2.844669 0.561623
C 4.593592 3.361891 -0.588765
C 4.562796 3.158189 1.790237
C -2.692078 4.050517 -1.089647
C -3.129622 4.328293 -2.386626
C -3.886925 5.466958 -2.655711
C -3.032434 4.952750 -0.083018
N 1.892537 -0.333171 0.611845
C -4.015109 -2.864160 -0.554339
N -0.398771 -1.980876 0.173704
C -4.698022 -3.002402 -1.762873
N -1.927975 0.338228 -0.590430
C -5.776084 -3.872766 -1.878518
N 0.365532 1.989378 -0.156863
C -6.192631 -4.622976 -0.787515
C -5.521717 -4.497654 0.413953
C -4.460652 -3.611786 0.532787
C 2.682236 -4.042877 1.052195
C 3.171374 -4.809451 0.003007
C 3.944075 -5.942518 0.241649
C 4.248036 -6.315039 1.529340
C 3.774897 -5.564398 2.591050
C 2.992797 -4.438653 2.353200