119
Sb1 H50 C54 N4 O10
Sb -0.003587 0.086289 -0.027204
H -1.437878 4.866127 1.330919
C -6.538682 0.187170 6.573845
H -3.256997 3.419997 2.191721
C -2.082728 0.319011 -2.121701
H 6.740365 -2.268386 -6.941133
H 4.617030 5.692678 1.886070
H 3.583456 5.747453 3.106670
H 7.315272 -2.783394 -5.539256
H -4.403249 -1.764189 1.905373
H -3.327595 -3.760415 0.921236
H 7.507176 -1.253980 -5.969487
H 4.810928 6.772747 3.050952
H 1.399216 -4.695742 -1.400417
H 9.369881 -1.072059 -2.330259
H 3.366761 -3.310193 -1.956094
H 9.005125 -2.585090 -1.957786
H 9.766777 -1.661064 -0.896131
H 1.567076 -1.886278 1.975640
H -0.517483 5.615121 -1.117828
H 2.132075 -0.817329 3.024056
H 1.747079 8.577222 0.485234
H 2.624223 -0.782240 1.501701
H 2.616447 4.706859 1.315881
H 0.209623 -5.412408 0.977835
O 5.664210 -1.692669 -5.374929
H -2.079821 -8.325152 -0.684599
C 4.398798 -0.827830 -2.111762
H -2.614414 -4.457937 -1.799058
O 7.837401 -1.241931 -1.082841
C -2.708205 -0.654965 1.238599
C 4.470325 -1.100285 -3.465889
C -3.565003 -1.781940 1.457733
C 5.692364 -1.432598 -4.044497
C -2.979093 -2.876664 0.919224
C 6.853530 -1.480072 -3.286256
C -1.726617 -2.454048 0.342532
C 2.852606 3.060078 -1.217039
C 6.765263 -1.209938 -1.919749
C 1.633611 2.635398 -0.569376
C -0.787640 -3.292829 -0.259995
C 5.550833 -0.884075 -1.324970
C 0.478532 -2.901690 -0.710854
C 0.677894 3.487079 0.004438
C -0.530449 3.074010 0.591021
C 1.476861 -3.757757 -1.270246
H -5.377228 1.348691 0.810201
C 2.551282 -2.996637 -1.582584
C -1.490732 3.921563 1.243458
H -7.446400 0.924502 4.295520
C 2.248891 -1.644164 -1.254520
C -2.490582 3.126643 1.713909
H -3.435616 0.391253 4.246290
C -2.187735 1.776493 1.365069
C 3.071752 -0.533702 -1.489078
H 1.409641 -7.265466 1.597011
C 2.739229 0.800452 -1.235636
H 0.929043 -8.485736 2.514101
N -0.991111 1.774171 0.679726
H 0.259524 -7.042522 2.687198
H -4.911331 -6.475061 -3.472381
H -1.152639 7.343742 -2.502141
C 4.152260 6.283101 2.515429
H -3.621082 -5.534136 -3.577074
H -1.810105 8.734941 -2.062353
H -4.644400 -5.356395 -2.359570
H -1.990109 7.438379 -1.141725
C 1.863409 -0.958124 2.092702
N -1.608370 -1.096157 0.545762
N 0.980892 -1.606495 -0.709716
O -0.192600 8.253500 -1.032966
N 1.598608 1.258157 -0.618204
C -2.974528 0.660354 1.642571
H -7.187809 2.537665 0.270981
O 3.342792 7.212958 1.788014
C 6.903750 -2.026272 -6.006114
C -1.152883 -4.740506 -0.387302
O -7.797246 1.481849 1.890834
C 9.093681 -1.673835 -1.608097
H -8.707095 2.045310 0.168854
H 4.366383 1.920667 -2.029079
C -0.489359 -5.678620 0.392777
C -0.868298 -7.018708 0.304005
C 1.003568 4.948689 0.079357
C -1.854452 -7.406492 -0.596634
O -0.350872 -8.019001 1.067660
C 0.210688 5.893510 -0.575092
C -2.510366 -6.456253 -1.368669
O -3.472779 -6.944660 -2.194616
C -2.167951 -5.110746 -1.273167
C 0.496794 7.244435 -0.423867
C 1.557519 7.652344 0.377044
C 2.336702 6.704426 1.015390
H -7.512007 1.005671 -0.059041
C 2.074945 5.350922 0.875181
O -5.366864 0.396413 5.822401
H -7.101916 -0.476115 6.122732
O -0.719158 0.362098 -1.811420
H -7.029766 1.031265 6.655305
O 0.771944 -0.057421 1.760855
H -6.300651 -0.139751 7.466573
H -2.223803 0.676764 -3.022968
H -2.582288 0.858272 -1.473889
H -2.396395 -0.608808 -2.085580
H 3.685404 -1.061249 -4.000629
C -4.239179 0.848184 2.429375
H 7.689219 -1.691405 -3.687222
C 3.520695 1.941875 -1.596166
C -5.398823 1.163726 1.741560
H 5.506791 -0.701639 -0.393585
C -1.378115 7.916543 -1.739456
C -6.602600 1.202943 2.454528
C -6.622384 0.923006 3.823880
C -7.801812 1.794811 0.446344
C -5.458174 0.647196 4.487711
C -4.243744 0.596111 3.790879
C 0.639848 -7.676110 2.043658
C -4.220917 -6.004224 -2.960650
H 3.135060 3.957065 -1.352423