213
Zn2 H113 C87 N10 O1
C -3.103546 -1.851821 1.555680
C -2.285461 -0.850695 2.263597
C -1.407090 -1.079802 3.341746
C 3.482221 1.472306 5.551905
H -4.478554 0.897568 -0.857282
C -0.560625 7.722054 2.674331
C 0.283063 8.133057 1.473291
H 1.105711 7.123267 4.977434
C -4.051443 6.137748 -1.104445
H 1.358160 5.683228 5.628633
C -2.914212 6.691769 -1.975980
H 3.344663 6.680702 4.758335
C -3.906386 -2.112864 -1.740121
C -3.279146 -3.333377 1.744412
H 2.717955 6.556554 3.291051
C -4.460419 -3.666623 2.648436
C -1.496007 -2.430836 4.036145
C -0.623682 -3.530547 3.542982
C -0.388946 -4.801047 4.034889
H 1.228502 7.957881 1.661991
C 0.423249 -5.491144 3.108509
C 0.680593 -4.637201 2.075340
C 1.490513 -4.831595 0.829530
C 0.951829 -6.908827 3.237170
C 2.240447 -7.014355 4.008848
C 2.340119 -2.700210 -0.130717
C 3.292251 -2.428059 0.964059
C 3.977045 -1.320017 0.624957
H -5.384534 4.093021 -2.583379
C 3.547262 -0.939561 -0.698662
H -5.150063 2.515490 -2.436701
C 4.130744 0.097667 -1.426208
H -7.421029 3.105030 -1.949698
C 3.755067 0.587816 -2.692874
H -6.728724 2.412254 -0.684087
C 4.401942 1.691693 -3.379022
H -6.912672 4.001447 -0.725349
C 3.702560 1.855539 -4.540196
H -5.094768 -2.576256 -0.132990
C 2.658583 0.865521 -4.548643
H -5.373391 -1.111252 -0.713243
C 1.727374 0.671127 -5.547845
H -4.521599 -2.504761 -2.394137
C 0.654285 -0.250853 -5.559839
C -0.289380 -0.396648 -6.627898
C -1.114628 -1.414436 -6.293443
C -0.678758 -1.861541 -4.976411
C -1.208860 -2.916820 -4.268996
C -0.782826 -3.470841 -3.051762
C -1.365038 -4.624704 -2.427682
H -5.285093 -3.317492 2.250984
C -0.679250 -4.881581 -1.291520
C 0.369729 -3.854073 -1.203249
C 1.374114 -3.731883 -0.216378
C 3.505376 -3.086219 2.317696
C 4.693673 -4.045690 2.247721
C 4.954928 -0.516061 1.492355
C 4.225095 0.740554 2.089816
C 5.563414 2.463712 -2.870959
C 5.290296 3.470392 -1.759871
C 3.960287 2.891378 -5.597422
C 3.359205 4.263240 -5.231205
C -0.325873 0.417027 -7.899805
C -1.107100 1.693081 -7.712939
C -2.278290 -1.997616 -7.060520
C -1.868036 -3.037621 -8.074091
C -2.560036 -5.374508 -2.979424
C -2.229710 -6.345086 -4.112301
C -1.055580 -6.009063 -0.359843
C -0.467385 -7.365651 -0.745727
C 0.475956 2.220720 -0.666469
C 0.053373 1.483414 -1.686998
C 0.824715 3.759205 -0.452659
C 1.925364 4.063292 0.457617
C 1.027724 4.279902 -1.969986
N -0.486487 1.177939 3.550829
N -0.869343 3.978592 2.707850
N -2.449574 0.373983 1.671511
N 2.523914 -1.749071 -1.115351
N 2.690554 0.096278 -3.387613
N 0.415749 -1.154782 -4.571350
N 0.262985 -3.019570 -2.296031
N 0.052520 -3.454178 2.332886
N 0.235966 1.643094 0.603054
O 0.002894 0.060177 -1.564579
H 1.905552 -1.578032 5.855956
H 0.547626 -2.569383 7.495166
H 0.428441 -0.978065 7.615867
H -0.739203 -1.816900 6.912993
H 1.862384 1.980728 6.735611
H 2.239425 0.430121 6.837859
C 0.344403 5.596223 3.862697
C -1.218455 5.215767 2.264821
C -2.126985 5.458759 1.225284
Zn -1.428052 2.141158 1.965372
C -2.808461 4.490958 0.482644
C -3.763591 4.783936 -0.569685
Zn 1.389518 -1.351397 -2.777638
C -4.289858 3.595360 -0.943253
H 0.074115 -2.746836 1.811083
C -3.645138 2.580348 -0.132349
H 0.181871 0.746510 0.461674
C -3.887935 1.194601 -0.176107
H 0.998326 1.779045 1.082524
C -3.371623 0.207360 0.654540
H 1.295529 3.474738 5.068740
C -3.774015 -1.171444 0.571582
H -1.295858 -2.292539 4.995318
H -2.295736 6.366979 1.003644
H 0.723362 -2.390777 5.148510
H -0.593543 -4.633383 6.128954
C 1.356807 6.186346 4.776978
H -0.239466 -6.131614 5.666803
C 2.737618 6.162741 4.188981
H -2.392427 -5.881291 6.312634
H -2.600840 -4.848673 5.107919
H -2.243311 -6.377564 4.798525
H 4.171828 1.557422 6.242908
H 3.713505 0.734722 4.949010
H 3.426796 2.306490 5.040889
C -5.356707 3.344037 -1.935366
C -6.729348 3.202407 -1.264089
H 3.053323 5.237053 4.132177
C -4.661359 -1.761567 -0.490235
H -1.502783 7.974807 2.507922
H -0.250256 8.222617 3.471268
H 0.157037 9.089167 1.296985
H 0.005540 7.617165 0.687641
H -4.881875 6.102132 -1.641333
H -4.206978 6.755585 -0.346569
H -3.158035 7.582549 -2.303301
H -2.093789 6.752197 -1.443691
H -2.765657 6.093218 -2.738033
H -3.501641 -1.303243 -2.116581
H -3.201797 -2.760000 -1.525826
H -3.416601 -3.760126 0.861283
H -2.452391 -3.710958 2.137789
H -4.531577 -4.638159 2.750117
H -4.323512 -3.255564 3.528717
H -2.434630 -2.740380 3.975339
H 2.442028 -4.915809 1.086910
H 1.219153 -5.687370 0.411696
H 1.092913 -7.278397 2.328901
H 0.266027 -7.465014 3.683888
H 2.583429 -7.930281 3.948965
H 2.899430 -6.393976 3.631194
H 2.078691 -6.786345 4.947804
H 4.872400 0.527943 -1.016409
H 1.816670 1.220191 -6.318168
H -1.969527 -3.328031 -4.660964
H 3.675540 -2.392527 3.002695
H 2.689338 -3.583853 2.578440
H 4.786171 -4.513664 3.104283
H 4.544469 -4.699421 1.533272
H 5.511591 -3.539350 2.062413
H 5.294238 -1.085245 2.227737
H 5.725901 -0.225262 0.944694
H 4.841702 1.229009 2.674261
H 3.933788 1.326594 1.360021
H 3.445042 0.450644 2.606982
H 6.240086 1.819742 -2.541293
H 5.966829 2.949765 -3.632502
H 6.092093 4.015027 -1.607176
H 4.546316 4.051795 -2.019809
N -2.751268 3.146866 0.727417
H 5.059897 2.993587 -0.934683
H 4.937258 2.988588 -5.726403
H 3.570487 2.584708 -6.454864
H 3.537579 4.902433 -5.951929
H 2.391078 4.173416 -5.106289
H 3.766223 4.586849 -4.399792
H -0.740408 -0.118582 -8.621287
H 0.599254 0.637386 -8.174943
H -1.117805 2.195324 -8.554217
H -2.026568 1.476707 -7.450244
H -0.686303 2.234467 -7.013657
H -2.910387 -2.407745 -6.418103
H -2.753733 -1.265295 -7.525823
C 0.927253 -1.600498 5.709244
H -2.661658 -3.356218 -8.554030
C 0.228739 -1.754625 7.053701
H -1.238419 -2.641794 -8.712200
C 2.135638 1.187658 6.209156
H -1.439752 -3.790396 -7.616206
H -2.983443 -5.881819 -2.241685
H -3.222234 -4.716555 -3.308364
H -3.024326 -6.875280 -4.331683
H -1.946593 -5.839746 -4.903693
H -1.505723 -6.942804 -3.831351
H -0.751664 -5.781054 0.553646
H -2.042062 -6.086571 -0.337855
H -0.706155 -8.030713 -0.067021
H -0.827508 -7.642787 -1.614862
H 0.508091 -7.294448 -0.804965
H 1.425161 1.918939 -0.725663
H -0.858785 1.792569 -1.917767
H 0.633035 1.693484 -2.461163
H 0.005828 4.204089 -0.089958
H 1.902751 5.015723 0.689274
H 1.834948 3.526558 1.271399
H 2.777350 3.854458 0.020246
H 0.952548 5.256937 -1.992983
H 1.912194 4.011875 -2.292915
H 0.336828 3.886922 -2.545267
C -0.770222 -5.325909 5.445037
C -0.498547 -0.139771 3.906055
C -2.094591 -5.629996 5.414531
C 0.511060 -0.348050 4.966572
C 1.044491 0.857190 5.221045
C 0.402285 1.806940 4.371262
C 0.648459 3.194076 4.432685
C 0.071201 4.178540 3.690795
C -0.492639 6.254384 2.966561