117
H46 Ru1 C62 S2 N4 O2
H -2.704527 -3.650633 4.645829
H 3.225359 1.593734 -2.080673
H -4.192592 -3.151310 1.767357
H 0.680012 -3.813083 3.924956
H -3.197584 -5.865799 5.218801
H 3.174830 2.265925 -6.271947
H -1.584225 -7.122875 1.747926
H 3.502338 0.502434 -7.694495
H 2.741056 -4.030608 -7.627708
H -1.858933 0.423119 5.803024
H -0.664743 -0.301653 5.022202
H 1.726488 -5.598440 -6.008784
H -2.420204 -5.418829 -0.480552
H 0.360035 2.214577 4.650106
H -2.588222 -7.600345 3.793243
H -0.921947 2.777649 5.425050
H -1.406128 -5.101772 -2.558316
H 0.984762 -4.258269 1.357486
H 1.976136 -3.877637 -0.720901
H 0.725565 -6.029389 -3.978863
C -1.817793 -4.061176 2.853593
C -2.463358 -4.355857 4.056184
C 3.031209 2.610989 2.586749
C 0.768707 -2.918916 3.616586
C 0.381457 -4.448364 -1.856015
C 0.997972 -4.162799 -3.180319
C 1.490939 -2.902560 -3.466172
C -1.485952 -5.102348 1.979721
C -2.756709 -5.675087 4.399102
C 2.100425 -3.614461 -5.699874
C 2.994064 1.382255 -5.972562
C 3.167791 0.339206 -6.820776
C -1.796438 -6.412461 2.341901
C 2.631955 -3.324874 -7.001514
C -0.828489 -4.870008 0.651824
C -1.568864 0.067048 4.937257
C 1.640786 -4.897492 -5.372805
C -1.521887 -5.113342 -0.521513
C -2.409075 -6.699367 3.551110
C -0.544405 2.575461 4.543520
C -0.918622 -4.914921 -1.764867
C 0.488117 -4.418869 0.563681
C 1.083665 -4.198998 -0.677661
C 1.072049 -5.162947 -4.159733
H -5.399680 -1.240116 0.758330
H -4.702848 1.243937 0.110162
H 2.656981 -2.364478 4.214437
H -1.994372 5.061391 -0.622074
H 1.478422 -2.235853 -2.789181
H -0.009741 6.151123 1.986137
H -0.825847 -2.232823 -0.323590
H -0.702424 -1.715173 -1.832847
H -1.911904 -1.215219 -0.911841
H 2.046167 -0.284613 -3.334153
H -1.407045 1.188715 -1.663901
H -0.182046 0.662913 -2.549321
H 0.021661 1.901742 -1.556928
H -4.051589 3.684552 -0.728740
H -2.184452 -0.639799 4.651806
H 3.304764 -1.913888 -8.228658
H -0.508155 3.395730 4.008090
H 1.434653 6.972303 -2.360752
H 0.803018 8.735486 -1.011666
H 1.261153 3.440481 -5.078042
H 0.629918 5.130356 -3.626109
H 0.180514 8.346461 1.212320
Ru -0.701233 0.653864 1.720139
C -3.575491 -0.132714 1.025273
C 0.182758 3.856481 0.757118
C 1.542073 -0.859899 3.170861
C -4.500322 -1.241591 1.063746
C -2.503863 -1.847310 1.945080
C -0.228662 -2.167465 2.890366
C 0.554116 5.236712 0.264224
C -3.828633 1.112913 0.459040
C 2.387573 0.247101 3.145875
C 1.117355 3.139753 1.508888
C 2.125631 1.491387 2.570099
C -2.952455 2.192026 0.343017
C -1.498521 -2.621553 2.533991
C 2.408424 3.615561 1.932552
C 2.311629 3.320879 -1.530730
C 2.409371 -1.224028 -5.110438
C -3.838933 -2.282361 1.618567
C 1.845825 -2.128719 3.779030
C -1.116480 3.432960 0.455619
C -2.106902 4.190713 -0.259263
C 2.011545 -2.579456 -4.740510
C 1.054463 5.461946 -1.036852
C 0.266486 6.311938 1.091451
C -0.965007 -1.469372 -0.921393
C 2.681272 2.304644 -2.399177
C 2.299014 -0.128692 -4.236544
C 1.496018 4.377336 -1.953169
C -0.438074 1.045744 -1.684193
C -3.229766 3.436178 -0.320954
C 2.977552 -2.075360 -7.351750
C 2.864341 -0.984046 -6.437841
C 2.269380 2.308666 -3.733159
C 1.129476 6.795923 -1.478850
C 2.545493 1.170428 -4.646758
C 0.775562 7.848358 -0.673068
C 1.521352 3.390595 -4.165779
C 1.142515 4.402809 -3.295453
C 0.376757 7.617761 0.634968
S -1.565137 1.380244 3.723929
S 0.028786 -0.086997 -0.366223
N -2.371947 -0.522047 1.574212
N 0.276333 -0.908566 2.638052
H 3.233897 0.144016 3.565470
N 0.963208 1.836076 1.923377
N -1.662453 2.213209 0.805918
H 2.760668 4.484376 1.778932
O -2.941250 1.924561 3.696197
H 2.617096 3.299750 -0.631669
O 1.448287 -0.430211 -0.564103
H 3.895501 2.637709 2.979844