136
P1 H52 Ru1 C77 N4 O1
C 3.959419 -4.067515 -4.150525
C -1.543507 5.048501 3.459187
C -1.607130 -3.658773 -5.232259
C 3.184546 -2.927340 -4.081763
C -3.212902 -0.302789 6.802433
C -2.585217 5.970858 5.411358
C -3.735181 3.292525 7.670757
H 3.401890 2.090851 -6.646128
P 1.009964 -1.389988 -2.980267
C -3.483538 4.499926 7.208101
H -3.695763 -0.163494 -1.358647
C -2.003113 6.164473 4.191500
C 0.205654 1.162765 1.819426
H 0.465531 -2.633557 3.142112
N 2.175122 0.702931 -0.979440
H 4.492001 -3.165836 1.314706
N -1.013631 -1.797923 -0.465752
H -3.448611 2.365972 -2.041985
N -0.635690 0.923436 -1.451700
H -0.187898 -0.741675 4.369314
N 1.779140 -1.978092 0.094797
H -3.101561 -4.386656 3.961811
O 0.260731 0.060239 1.184323
H -1.523281 -6.213677 4.144495
H -3.759463 -2.483425 5.135759
H -4.105553 -2.670048 -0.554120
H 4.833620 -0.836304 0.138627
H -1.563676 -0.331374 -3.581502
H 1.195165 -3.881698 -1.682489
H -1.503785 3.854787 -2.472232
H -2.352869 6.363062 1.265420
H 3.560920 -0.072441 -3.237131
H 2.514595 -4.564136 1.834997
H -2.656513 -4.384101 0.460867
H -1.652350 1.139989 4.319543
H 4.587588 1.319351 -4.823869
H 3.771759 3.414475 -1.650114
H 0.764636 4.127756 2.556107
H 2.176642 3.330952 -4.083900
H 0.154699 0.024097 -5.434659
H 0.284395 -3.803527 -4.509415
H 1.678131 4.173094 0.409312
H -3.499301 -1.072567 -4.700717
H 2.334085 5.330694 -5.249373
H -1.346332 3.052255 3.524068
H 0.628625 -6.102026 0.014287
H -3.500327 -3.132518 -5.760553
H -1.441672 6.393825 -0.878121
H 1.167731 1.490861 -6.911986
H 4.286176 -5.905050 -3.334006
H -0.875607 -8.216028 3.112577
H 2.518820 -5.798858 -1.795551
H -4.082583 0.741842 8.296703
H 1.425471 7.279692 -4.335644
H 0.490705 7.245191 -2.214407
H 0.245993 -8.137721 1.060730
H 4.657156 -4.123717 -4.792407
H -1.612438 -4.504653 -5.664371
H 3.351239 -2.209434 -4.679626
H -3.433180 -1.158995 7.148084
H -2.867305 6.727326 5.911235
H -4.211766 3.205022 8.488003
H -3.767563 5.259460 7.704708
H -1.908723 7.042111 3.837825
H 0.328380 0.993111 2.777640
H -0.667369 1.581726 1.671725
H 0.913827 1.759394 1.500504
Ru 0.603061 -0.582992 -0.836561
C 2.158030 2.001762 -1.450848
C 1.735458 -0.195225 -4.162346
C 1.025158 2.695547 -1.861577
C -2.758994 -0.251696 -1.230006
C -0.446720 -2.013050 -3.910887
C -0.392593 -2.607339 3.548104
C 3.594773 -2.989189 1.056905
C 2.145685 -2.819777 -3.127943
C -2.532039 2.138905 -1.936158
C -0.787626 -1.472543 4.274136
C -2.509249 -3.645327 4.026680
C -0.287188 2.200754 -1.849975
C 2.983231 1.520414 -6.011612
C 1.216977 4.069672 -2.459569
C -0.836056 -4.946847 2.696513
C -1.082952 -6.186517 3.303946
C 3.134217 -1.857083 0.304493
C -2.899534 -2.510531 4.732261
C -3.166372 -2.607339 -0.427449
C 3.904342 -0.765312 -0.045634
C -2.051542 -1.410694 4.858775
C -1.575793 -1.190188 -3.989455
C -1.030724 -3.024148 0.107082
C 1.910184 -3.916926 -2.306110
C -1.260527 -3.704487 3.417601
C -1.470388 2.956389 -2.163766
C 0.072710 -3.615747 0.722154
C 0.212301 5.282451 -0.468203
C 4.308871 1.593020 -0.894081
C -1.541608 5.898253 1.092872
C -2.323128 3.558745 5.251350
C -0.920570 5.204468 2.115000
C 3.068695 0.221584 -3.993841
C -2.332624 -1.491366 -0.796950
H 5.243989 1.664630 -0.740527
C -2.017357 0.869655 -1.503690
C -0.169437 -4.911889 1.458942
C 2.517928 -3.760958 1.328367
C -2.379154 -3.540453 0.123425
C -2.168343 1.071336 5.114252
C 0.766867 5.252871 -1.838656
C 3.679287 1.065958 -4.937656
C 3.507410 2.539580 -1.388007
C 0.305362 4.577910 1.856995
C 1.820922 4.126143 -3.702125
C 1.053646 0.291500 -5.284438
C -0.479007 -3.239275 -4.545527
C 1.375560 -3.137089 0.705191
C 3.479871 0.439400 -0.641964
C 0.852331 4.612868 0.575662
C -2.780834 4.688162 5.956977
C -2.581419 2.235712 5.752330
C -2.489308 -0.200603 5.605843
C -2.725758 -1.623132 -4.671115
C 1.914932 5.309342 -4.397419
C -1.687846 3.795385 4.004678
C 0.200906 -6.116601 0.861727
C -0.989891 5.927833 -0.184678
C 3.733414 -5.132394 -3.292488
C 1.662339 1.149320 -6.175130
C -0.693616 -7.383163 2.695423
C -3.311660 2.103947 6.978433
C 2.693603 -5.065167 -2.373792
C -3.606036 0.826629 7.479749
C 1.396451 6.465651 -3.844629
C 0.836188 6.441449 -2.585782
C -0.039342 -7.332070 1.477098
C -2.727657 -2.841290 -5.289920