10
H6 C2 S1 O1
H 1.071270 1.908386 -0.145733
H 0.496662 -1.750023 -0.092651
H -0.002203 -1.508191 1.408592
H 1.562781 -1.499101 1.074187
C 1.161005 1.021674 0.262114
C 0.671816 -1.264187 0.741013
S -0.496364 0.111754 0.165088
H 1.844310 0.508957 -0.216992
O -0.784159 0.034933 -1.287308
H 1.424922 1.120120 1.201327