14
H8 C4 O2
H 1.313450 0.368959 -1.237052
H -0.652174 -0.452747 -2.144266
C 0.946872 -0.459629 -0.891480
C 0.497284 0.492835 1.201151
C -0.509149 -0.518814 -1.187212
H -0.871735 -1.366671 -0.885791
H -1.338284 -0.356399 1.213901
O -1.174159 0.554772 -0.522714
O 1.188766 -0.536707 0.519688
C -0.949681 0.466683 0.878099
H -1.390242 1.207182 1.321384
H 0.868980 1.351703 0.950242
H 0.615497 0.382723 2.158443
H 1.397495 -1.195999 -1.335491