93
Mg1 H32 C49 Br4 N7
H 5.384431 -1.487813 -0.458737
H 7.367838 -2.690893 -0.144607
C 1.998866 5.622582 4.807508
Br 2.486131 7.006382 5.986019
C 5.654918 -3.963723 2.226102
C 4.480369 -3.302292 2.010169
C 6.728535 -3.730127 1.424892
C 5.431301 -2.131775 0.211055
C 6.639083 -2.838909 0.413659
Br 8.355352 -4.664636 1.676558
H -0.566323 -3.884770 -6.786424
H -7.131133 2.411240 -1.001879
C -6.313243 2.738185 -1.300023
C -6.228850 3.893467 -2.001173
Mg -0.051718 -0.181506 0.108461
H 0.615170 -2.437531 2.109457
H 3.373772 1.775022 3.485362
H -2.906368 -1.596562 -3.971425
H 4.393037 -0.320838 2.756647
H -3.943631 0.434158 -3.189082
H -2.874290 -2.488300 3.872263
H -3.033101 4.050306 -2.406649
H -5.167316 1.242005 -0.603161
H 3.756110 -3.474924 2.566723
H 0.915564 2.599957 4.775289
Br -7.867695 4.780876 -2.423430
H 1.522308 4.281185 6.218702
H -4.448961 1.112423 2.669245
H -4.044434 0.084361 3.783485
H -1.760181 -4.638750 -2.477140
H -2.293030 -6.176723 -4.105097
H 0.007643 -2.406757 -5.148293
H 1.588647 -4.223280 -2.686393
H -0.875806 4.559456 1.927349
H 3.401158 -3.853158 -1.113967
H -2.763048 4.206168 0.363395
H -4.146606 -1.032454 1.729645
H -3.138708 -0.013520 1.094443
H -2.341033 1.679388 2.642327
H -3.043570 2.136422 3.959415
C 2.272247 -2.225721 -0.345919
C -2.230381 -1.359894 2.311272
H 1.783796 4.928118 1.691448
C 0.644047 -2.503750 -1.805226
C 4.335008 -2.380605 0.979205
H 2.393315 6.659543 3.132403
C 0.971567 2.474120 2.124336
C 1.821531 1.353115 2.060704
C -0.270868 -2.247303 2.318580
C -3.888936 2.550293 -1.422999
H -5.004736 5.234966 -2.886638
C -1.452652 -1.265948 -2.446967
C -0.164079 2.691212 1.311667
C 1.325971 3.587508 3.054685
C 2.742014 -0.537231 1.400245
C -1.813915 2.372557 -0.123754
C 3.042484 -1.688705 0.683602
C 3.045210 1.193153 2.838317
C -2.421235 0.581234 -1.764317
C -2.612324 -1.057743 -3.273008
C 3.600804 0.044219 2.436010
C -0.535415 -2.338710 -2.576438
C -3.170712 0.053105 -2.840019
C -2.182022 -2.273963 3.288931
C -0.819443 -3.346726 -3.622711
C -3.852216 3.715731 -2.122000
C -5.127947 2.058980 -1.045325
C 1.736454 4.788494 2.610637
C 1.224372 3.409772 4.436215
C 1.573565 4.416518 5.299617
C -3.729069 0.546957 2.992064
C -5.033960 4.430483 -2.421942
C -1.378878 -5.179943 -5.585585
C -1.493190 -4.479156 -3.354233
C -1.806804 -5.413539 -4.316494
C -0.467738 -3.171529 -4.917069
C -0.779648 -4.067825 -5.900261
C 1.636629 -3.549852 -2.046183
C -2.639566 1.811420 -1.099998
C -1.004835 3.816025 1.383451
C 2.620675 -3.351804 -1.177400
H 5.721391 -4.575134 2.924213
C -2.048365 3.629403 0.510044
C -3.369892 -0.480102 1.911866
C 2.098478 5.843482 3.467483
Br -1.891146 -6.438312 -6.935210
N 1.665418 0.274005 1.206228
N -0.667650 1.811420 0.392241
N -1.336379 -0.266819 -1.520257
N 1.054519 -1.711557 -0.786244
N -1.022579 -1.307843 1.652663
N -0.926611 -2.841448 3.275823
N -2.571878 1.387393 3.347127