12
H6 C6
H 0.827376 1.949086 0.774127
C -0.494812 1.121613 -0.444908
H -0.827376 1.949086 -0.774127
C 0.494812 1.121613 0.444908
C 1.017113 0.005961 0.873691
C -1.017113 0.005961 -0.873691
H 1.755030 0.012660 1.471847
H -1.755030 0.012660 -1.471847
C -0.500702 -1.128363 -0.457498
C 0.500702 -1.128363 0.457498
H -0.830027 -1.952358 -0.798489
H 0.830027 -1.952358 0.798489