16
H8 C5 N3
H -0.088488 2.129244 0.431554
C -1.076776 0.231603 -1.116752
H -2.525095 1.693091 -0.954086
C 0.015139 -0.392359 -0.314248
H -2.176592 1.045856 0.428085
H -0.628925 2.972120 -0.881311
H -1.729245 -0.450213 -1.341129
C 1.377891 -0.380652 -0.514910
H 1.890995 0.057175 -1.265328
C -1.794265 1.384704 -0.395714
H 1.249324 -2.155374 2.135258
C 0.954160 -1.592286 1.238654
N -0.924316 2.540146 -0.074785
N -0.243770 -1.179043 0.791347
N 1.956320 -1.140411 0.473480
H -0.703304 0.566295 -1.947216