12
H6 C6
C -1.055025 0.166040 0.827791
H 1.918976 -1.118624 0.752946
C -1.147251 0.672437 -0.429471
C -0.050790 0.507487 -1.288037
H -1.791484 0.279196 1.416574
H 0.070919 -0.846489 2.175234
C 1.064702 -0.170458 -0.851371
H -1.930862 1.125076 -0.717628
C 1.137897 -0.671906 0.450191
H -0.078457 0.861865 -2.168859
H 1.796403 -0.300340 -1.444858
C 0.051683 -0.503657 1.289772