77
Mg1 H24 C44 N4 Cl4
C -1.251666 -1.813353 5.491206
C -1.463196 -2.605891 6.590195
C -1.456121 -3.984929 6.483761
C -1.221992 -4.583136 5.260603
C -1.008166 -3.795282 4.143428
N -1.618130 -1.089885 0.716424
Cl -1.727994 -4.965123 7.891193
H 3.282842 2.888617 -2.769206
H 1.260141 0.887806 -5.578820
H 1.612279 2.210570 -7.418486
H 1.207241 5.510791 -5.188681
H 0.852257 4.203386 -3.322823
C 0.753605 1.586245 -2.993780
C 1.714546 1.689263 -1.945097
H -1.360290 1.168764 -4.859085
C 2.968140 2.410390 -2.035817
C 3.585996 2.253522 -0.851303
C 1.020258 2.401025 -4.220109
C 1.251666 1.813353 -5.491206
C 1.463196 2.605891 -6.590195
C 1.456121 3.984929 -6.483761
C 1.221992 4.583136 -5.260603
C 1.008166 3.795282 -4.143428
C -2.447056 0.008195 -3.574248
C -1.426393 0.771465 -4.021638
N 1.618130 1.089885 -0.716424
C -0.451293 0.854582 -2.946234
Cl 1.727994 4.965123 -7.891193
Mg 0.000000 0.000000 0.000000
H 7.374434 0.879611 2.467404
H 3.203313 0.238979 4.056227
H 4.416723 2.603069 -0.619587
H 5.471611 0.119396 1.354471
N -0.918969 0.154527 -1.859603
H 5.363714 4.058107 3.819293
H 3.443987 3.269714 2.756723
C 6.585648 1.369673 2.508427
C 2.141784 0.357051 2.193133
C 2.739488 1.449278 -0.000280
C 2.968081 1.102762 1.342640
C 4.255032 1.620194 1.939782
C 5.438586 0.906091 1.850186
C 6.546091 2.535651 3.205156
C 5.384570 3.269655 3.326268
C 4.237634 2.790855 2.683606
Cl 7.980135 3.102017 4.034731
H -7.374434 -0.879611 -2.467404
H -3.203313 -0.238979 -4.056227
H -4.416723 -2.603069 0.619587
H -5.471611 -0.119396 -1.354471
H -5.363714 -4.058107 -3.819293
H -3.443987 -3.269714 -2.756723
C -6.585648 -1.369673 -2.508427
C -2.141784 -0.357051 -2.193133
C -2.739488 -1.449278 0.000280
C -2.968081 -1.102762 -1.342640
C -4.255032 -1.620194 -1.939782
C -5.438586 -0.906091 -1.850186
H 1.360290 -1.168764 4.859085
C -6.546091 -2.535651 -3.205156
C -5.384570 -3.269655 -3.326268
C -4.237634 -2.790855 -2.683606
Cl -7.980135 -3.102017 -4.034731
C 2.447056 -0.008195 3.574248
C 1.426393 -0.771465 4.021638
C 0.451293 -0.854582 2.946234
H -3.282842 -2.888617 2.769206
H -1.260141 -0.887806 5.578820
H -1.612279 -2.210570 7.418486
H -1.207241 -5.510791 5.188681
H -0.852257 -4.203386 3.322823
N 0.918969 -0.154527 1.859603
C -0.753605 -1.586245 2.993780
C -1.714546 -1.689263 1.945097
C -2.968140 -2.410390 2.035817
C -3.585996 -2.253522 0.851303
C -1.020258 -2.401025 4.220109