109
Ni1 H44 C52 N4 O8
H -4.193746 0.290748 -2.862515
H -5.506683 0.383215 -0.125815
H -7.766365 3.356469 -1.731495
H -3.718727 3.715853 -1.600001
H -9.149680 1.464225 -2.007695
H -9.851603 0.764524 -0.751223
H -9.382060 2.291665 -0.657875
H -4.296122 5.067592 -3.436629
H -5.091748 6.446976 -3.285024
C -2.603800 0.410383 -1.433606
C -3.081485 1.359937 -0.552989
Ni 0.000000 0.000000 0.000000
H 2.783822 1.385104 4.027067
H -0.814045 1.948487 5.191055
H 1.118041 5.106676 6.888449
H 1.979731 4.000881 3.071246
C -4.428125 1.953063 -0.825593
C -5.569403 1.233724 -0.544315
C -6.822227 1.763743 -0.879622
H 1.832954 7.128565 5.966097
C -6.918309 3.001185 -1.494301
H 3.349550 7.391668 5.526039
C -5.752139 3.716901 -1.759042
H 3.015931 6.271574 6.617690
C -4.506051 3.213479 -1.424766
C -9.168893 1.410079 -1.029369
C -4.809647 5.631547 -2.821563
O -7.890389 0.987494 -0.551359
O -5.957742 4.919835 -2.371250
H -3.640466 3.278301 1.379479
H -1.860447 3.609086 3.074934
C -0.795868 2.068599 2.038988
C 0.361748 1.958592 2.781705
C 1.370713 1.072145 2.450367
C 2.569607 0.926294 3.223434
H -2.263253 2.488992 6.851936
C 3.334663 0.013536 2.591681
H -1.980101 2.408917 8.425261
H -1.143953 1.492823 7.413247
C 0.563198 2.854000 3.961541
C -0.175126 2.649428 5.133679
C 0.048452 3.496028 6.209624
C 0.974091 4.538336 6.140356
C 1.678926 4.731373 4.965159
C 1.481961 3.876002 3.870962
H 3.640466 -3.278301 -1.379479
C 2.702821 6.708363 5.798939
H 1.860447 -3.609086 -3.074934
H -4.250834 5.869293 -2.052554
C -2.351564 1.790721 0.535397
C -2.813024 2.814248 1.428844
C -1.846633 2.991271 2.353325
H 2.263253 -2.488992 -6.851936
H 1.980101 -2.408917 -8.425261
H 1.143953 -1.492823 -7.413247
N 1.381019 0.229738 1.349941
O -0.595281 3.394219 7.410929
O 2.570528 5.735835 4.761527
H 4.250834 -5.869293 2.052554
C -1.571645 2.366020 7.534996
C 2.351564 -1.790721 -0.535397
C 2.813024 -2.814248 -1.428844
H -2.783822 -1.385104 -4.027067
C 1.846633 -2.991271 -2.353325
H 0.814045 -1.948487 -5.191055
H -1.118041 -5.106676 -6.888449
H -1.979731 -4.000881 -3.071246
N -1.102817 1.333341 0.906965
H -1.832954 -7.128565 -5.966097
H -3.349550 -7.391668 -5.526039
H -3.015931 -6.271574 -6.617690
C 1.571645 -2.366020 -7.534996
C 0.795868 -2.068599 -2.038988
C -0.361748 -1.958592 -2.781705
N 1.102817 -1.333341 -0.906965
C -1.370713 -1.072145 -2.450367
C -2.569607 -0.926294 -3.223434
C -3.334663 -0.013536 -2.591681
C -0.563198 -2.854000 -3.961541
C 0.175126 -2.649428 -5.133679
C -0.048452 -3.496028 -6.209624
C -0.974091 -4.538336 -6.140356
H 4.193746 -0.290748 2.862515
C -1.678926 -4.731373 -4.965159
C -1.481961 -3.876002 -3.870962
C -2.702821 -6.708363 -5.798939
H 5.506683 -0.383215 0.125815
H 7.766365 -3.356469 1.731495
H 3.718727 -3.715853 1.600001
H 9.149680 -1.464225 2.007695
N -1.381019 -0.229738 -1.349941
H 9.851603 -0.764524 0.751223
O 0.595281 -3.394219 -7.410929
H 9.382060 -2.291665 0.657875
O -2.570528 -5.735835 -4.761527
H 4.296122 -5.067592 3.436629
H 5.091748 -6.446976 3.285024
C 2.603800 -0.410383 1.433606
C 3.081485 -1.359937 0.552989
C 4.428125 -1.953063 0.825593
C 5.569403 -1.233724 0.544315
C 6.822227 -1.763743 0.879622
C 6.918309 -3.001185 1.494301
C 5.752139 -3.716901 1.759042
C 4.506051 -3.213479 1.424766
C 9.168893 -1.410079 1.029369
C 4.809647 -5.631547 2.821563
O 7.890389 -0.987494 0.551359
O 5.957742 -4.919835 2.371250