205
Nd1 H84 C108 N12
H -3.102078 -2.063765 -9.339582
C 3.124637 -2.225758 8.711980
C -7.580168 -4.163673 3.934341
H -9.022382 -2.961259 3.099683
H -5.152153 -5.207722 3.529802
C -2.685271 -3.804348 -8.377437
C 1.610563 2.503033 3.699155
H 7.171918 1.486020 -2.687411
C 0.292177 2.265808 4.158365
C -1.077854 1.972766 -4.164854
C -3.120194 1.548902 -6.004708
C -1.820637 1.988465 -6.440034
H 8.575853 5.455396 -2.041508
C -3.385852 1.402381 -4.619569
H 7.927132 5.083983 -4.244581
C -4.009866 1.425057 2.021914
H 8.458759 1.677265 -4.700247
C -0.990181 -1.704213 -3.168647
C -0.796970 2.223945 -5.470827
C -2.380107 1.590765 -3.723317
C -4.468485 1.318655 0.684690
C -2.561749 1.458198 1.928371
C -4.036900 -2.611248 1.931652
C 3.553513 3.265291 -0.678750
H 5.005620 -2.588677 -2.492855
C 3.108068 3.122258 -2.014949
C 1.698908 -1.228020 3.133965
C -0.497025 -1.927483 4.103174
C 4.494749 -0.662868 0.933053
H 7.022131 -2.403485 -3.585725
C 1.564148 2.298950 2.244526
C 2.502830 2.653042 0.134066
H -6.445735 -5.121293 5.373576
C -0.026688 2.353023 5.488883
C -0.231255 1.967533 -2.978262
C 2.636153 2.818751 4.553276
C -3.304013 -2.128078 -2.230770
C -1.745122 -2.157731 3.613716
C 1.323333 -1.519318 -4.149609
C 1.798447 2.485590 -1.953303
H -1.883360 -5.668932 -7.965754
C -1.480044 -2.199594 -4.499084
H -1.994084 -5.398235 -9.505907
H -8.806419 -5.764973 3.659032
C 2.542063 -1.224531 -3.656236
C -2.785159 -2.053073 1.329725
C -0.485473 1.882063 2.971570
C 2.248429 -1.456523 4.490403
C -3.804257 -2.224014 -0.974037
C -2.262164 1.445988 -2.269325
C 4.819552 -0.648913 -1.960963
C -4.075495 1.240161 -6.995733
C -6.347705 -2.363558 2.604406
C 1.019977 2.612923 6.407223
C -1.911883 -1.733866 -2.108219
C -1.963672 -3.507817 -4.627262
C 2.381509 -0.922768 -2.255202
C -1.551288 2.089634 -7.818783
C -1.807243 -1.903063 -6.886940
C -5.812964 1.276791 0.385325
C 0.310608 -1.447802 3.007983
C 4.723373 3.881028 -0.367131
C 5.575734 4.289194 -1.430047
H -8.212734 -5.220508 2.314156
C 3.452661 -0.699498 -1.362070
C -2.729600 -1.892598 -0.075012
H -7.317068 -6.072406 3.278351
C 3.362734 -0.669845 0.038720
C -1.431709 -1.411171 -5.635629
C -3.254820 1.290746 -0.150770
C 3.999845 -0.832065 2.185581
C -4.872089 1.487851 3.061201
C 3.885276 3.537401 -3.074124
H 7.481116 -0.393234 -5.890333
C 5.169354 4.081622 -2.795108
C 0.787891 2.600713 7.813421
C 6.081627 4.392107 -3.829062
H 9.016373 -0.577083 -6.148789
C 2.561900 -0.924512 2.070860
H 8.174814 -1.758060 -5.553240
H 9.935978 1.152423 -4.697910
C 5.510149 0.561629 -2.008934
H 9.222231 1.490834 -3.343804
C -4.045272 -3.872375 2.498431
C 1.810042 2.752467 8.694724
C -6.350660 -3.595032 3.226751
H 9.373226 -2.117560 -3.560256
C -2.284195 -3.220008 -7.016872
H 10.484455 -1.099518 -3.991945
C 2.907999 -1.983301 7.208203
H 9.789492 -0.955264 -2.594148
C -5.174280 -4.360779 3.144582
C 2.358308 -0.779736 6.811563
C 2.358589 2.829216 5.948886
C 0.367509 -1.395473 -3.068411
C 3.129279 2.954806 8.243338
C 8.588295 -0.298309 -4.139064
C -1.709975 -1.822826 2.213353
C -5.204545 -1.885620 1.961220
C -8.574208 1.334353 3.597904
C -2.500091 1.752985 -8.745765
C -6.732318 1.309933 1.452324
C -2.359023 -3.982266 -5.866094
C 7.338283 4.894465 -3.549802
C 6.864040 4.845624 -1.185035
C 2.025708 -0.526812 5.496894
C -3.770381 1.332609 -8.332376
C 3.683249 -3.622941 8.981848
C 2.853065 -2.660088 4.872032
C 1.770098 -2.133311 9.425671
C 3.169097 -2.909523 6.199612
C 4.113388 -1.180924 9.262104
C -7.194920 -4.521254 5.381946
C -6.277535 1.414591 2.803268
C -8.717055 -3.148492 3.989298
C -8.146218 1.212252 1.235596
C 3.401715 3.008879 6.893615
C -9.024764 1.241905 2.264648
C -7.227364 1.425057 3.855150
C -4.146575 -4.291007 -8.310309
C -1.767323 -5.013146 -8.657339
C -2.544243 -2.827541 -9.506917
N -0.447212 -1.358842 1.897278
N 0.330439 1.862875 1.874754
N 2.191433 -0.762293 0.762863
N 1.512017 2.143707 -0.651064
N 1.050401 -0.996028 -1.934757
N -0.973386 1.611697 -1.877024
N -1.607296 -1.540249 -0.785485
N -2.156580 1.330865 0.638593
N 1.052243 2.323370 -3.036171
N -3.336208 1.275047 -1.483325
N -1.798603 1.641350 3.032476
N 2.592544 2.632111 1.467675
C 6.728298 0.668032 -2.677653
C 7.293198 -0.416922 -3.324855
C 7.728078 5.119479 -2.222697
C 5.422862 -1.758287 -2.546823
C 6.636962 -1.644907 -3.209042
Nd 0.023653 0.179977 -0.010107
H -4.239475 1.180454 -4.325108
H 0.039481 2.541861 -5.727072
H -0.216880 -2.053910 4.980648
H 5.388645 -0.563041 0.697806
H -0.903901 2.244301 5.778391
H 3.485752 3.020932 4.231836
H -3.765680 -2.286041 -3.021534
C -8.018207 -5.419567 3.233501
H -2.478462 -2.472350 4.090084
H 1.129076 -1.758758 -5.026559
H 3.341230 -1.216700 -4.133066
H -4.672217 -2.456965 -0.738841
H -4.928150 0.970946 -6.738922
H -7.119657 -1.845658 2.610611
H -0.078454 2.486601 8.133714
H -2.019190 -4.057323 -3.879773
C 8.287115 -0.804156 -5.567151
H -0.718396 2.389427 -8.104506
C 9.658790 -1.201856 -3.512461
H -1.741943 -1.358162 -7.638520
C 9.098835 1.138992 -4.228216
H -6.105857 1.225806 -0.497226
H 1.637728 2.722692 9.608201
H 4.959829 4.031282 0.519897
H -1.142360 -0.530231 -5.564253
H 4.493779 -0.878376 2.972946
H -4.555556 1.578974 3.931080
H 3.577871 3.464943 -3.947746
H 5.830795 4.255877 -4.715100
H 3.818512 3.051196 8.859959
H 5.152590 1.309916 -1.586614
H -3.282745 -4.403026 2.444781
H -6.933087 1.495631 4.735406
H 2.209878 -0.119205 7.449042
H -9.184414 1.334737 4.299240
H -5.232743 -1.055230 1.544241
H -2.300908 1.803186 -9.651981
H -2.687650 -4.850298 -5.925667
H 7.125907 5.028340 -0.312076
H 1.640524 0.290583 5.279319
H -4.412586 1.114397 -8.968413
H 3.046362 -3.301467 4.227198
H 3.567698 -3.719296 6.423989
H -8.466551 1.126538 0.366343
H 4.271509 3.164558 6.601820
H 3.039262 -4.282634 8.714905
H 4.493621 -3.745321 8.483062
H 3.867628 -3.717813 9.920056
H -9.936680 1.199955 2.089823
H 1.382807 -1.268976 9.266420
H 1.183057 -2.813831 9.090030
H 1.896475 -2.256807 10.370003
H 4.317427 -1.382617 10.177772
H 4.921516 -1.200983 8.742602
H 3.720123 -0.306961 9.206288
H -6.960849 -3.721842 5.857069
H -7.939769 -4.945572 5.814677
H -9.441096 -3.506875 4.508448
H -4.379858 -4.720418 -9.138132
H -8.402224 -2.338091 4.397650
H -4.243803 -4.915989 -7.588686
H -4.727876 -3.541098 -8.165676
H -0.852288 -4.721988 -8.671305
H -1.628959 -2.546308 -9.573434
H -2.811938 -3.245632 -10.327822