59
H21 Pd1 C33 N4
N -0.574385 -0.809685 -1.611606
C -1.141837 -1.083643 -3.877739
H 1.235558 1.093996 4.817607
H -2.924357 -2.923742 -1.980791
C -0.359217 -0.438486 -2.911256
N 1.545653 0.949069 -1.017309
H -2.489802 -2.460912 -4.150875
C 0.655448 0.520835 -3.247424
N 1.075236 0.585350 1.666032
C 0.634353 0.971509 -4.688144
H 2.311398 0.031824 -5.351475
H 0.077448 -2.156099 5.312854
H 2.258660 0.879878 -7.506552
C 1.564638 1.115501 -2.394998
C 1.627923 0.606855 -5.606603
N -1.042691 -1.223894 1.026712
C 2.617274 2.002825 -2.836218
C 1.587843 1.104281 -6.903251
H 0.528879 2.242188 -8.172885
H -0.681969 -2.141139 7.506951
C -1.221998 -1.244464 2.377387
C -0.483677 -1.475412 5.606101
C -1.709290 0.549820 5.166982
C 0.558411 1.925220 -7.299449
H -1.114414 2.854619 -6.660129
H -1.080662 2.004695 -4.541070
C -0.428830 2.281458 -6.402000
C -0.939326 -1.466062 6.919557
C -0.395078 1.786838 -5.129364
C 3.269106 2.431060 -1.698650
C -2.274634 -2.296351 -2.202902
C 2.572974 1.777488 -0.513057
C -1.603816 -1.697009 -1.287444
C -2.021495 -1.998082 -3.493547
H -1.046910 -0.872330 -4.781190
C 2.883069 1.901844 0.789594
C -2.255648 -2.106544 2.830614
C 2.157405 1.432469 1.771084
C -0.869713 -0.467471 4.729963
H 2.817675 2.237513 -3.712656
C -2.947561 -2.763856 1.951174
C 2.389449 1.751308 3.301849
H -2.432845 -2.198175 3.740068
H -2.084780 -0.443161 8.236315
C -2.812554 -2.704950 0.663531
H -3.605722 -3.335147 2.275336
C 1.397988 1.087451 3.902149
H -2.728174 1.239857 6.771583
C -1.850626 -1.927957 0.213306
H -3.365240 -3.184610 0.090244
C 0.625915 0.368428 2.944671
H 3.994771 3.010766 -1.662632
H -1.968758 1.223962 4.580488
C -1.778903 -0.448771 7.356576
Pd 0.278904 -0.130961 0.018509
C -0.456253 -0.458121 3.289843
H 3.665690 2.352519 1.008703
C -2.164940 0.559170 6.480438
H 3.053938 2.274913 3.689043