96
Co1 H39 C50 N6
C 3.566925 2.308557 0.761813
C 2.339179 1.688260 0.917443
C -2.546956 -0.979213 -0.056343
C -3.748309 -1.666807 0.026591
C -3.923800 -2.607981 1.012538
C -2.876171 -2.848882 1.884711
C -1.691955 -2.142758 1.734977
N 1.100807 -1.881862 0.892176
N 0.128585 -0.725437 -1.335617
N -0.660436 1.397422 0.347187
H 1.710739 -7.423086 -1.912547
N 0.412042 -0.033650 2.352210
N 1.989912 0.582063 0.235355
N -1.525034 -1.206265 0.775239
H 4.096309 -7.707877 -4.043060
H 2.912092 -7.543049 -5.105982
H 2.692730 -8.433507 -3.794873
C -2.062130 3.788102 3.943894
C -2.219625 4.864845 4.812701
C -1.131723 5.450031 5.443168
C 0.134583 4.905808 5.200452
C 0.294306 3.828090 4.339996
C -1.300187 6.630156 6.366176
Co 0.214616 -0.282842 0.510565
H 2.500787 -3.726661 3.057730
H 2.552200 -4.681490 0.736801
H 0.394562 -2.515326 -3.960895
H -0.683400 -0.322829 -4.394673
H 0.350004 1.083568 5.310717
H 1.508514 -1.135263 5.121379
H 2.603614 -3.154154 -3.541457
H 3.369669 -5.017972 -4.681578
H 0.898411 -5.565121 -0.768530
H -0.337218 3.367744 -3.676947
H -4.463980 1.669729 -5.032727
H -3.365453 0.748061 -3.201725
H -2.827329 3.410657 3.525501
C 2.629663 -6.417542 -3.411142
C 1.891027 -6.553110 -2.248063
H 1.162332 3.471127 4.196319
H -4.486260 3.046867 -6.957556
H -3.063829 3.541349 -7.496208
H 2.677306 -0.734410 -1.086716
H 4.744114 0.257480 -1.459040
H 3.782688 3.080027 1.272556
C 3.126143 -7.631802 -4.153560
H 1.715880 2.058878 1.531340
H -2.445158 -0.319903 -0.733073
H -4.445129 -1.487349 -0.594006
H 5.318228 2.215903 -0.290623
H -4.743325 -3.081006 1.092792
H -2.967858 -3.490636 2.577639
H -0.973028 -2.323190 2.329304
C 1.481265 -2.078387 2.191244
C 2.140381 -3.326784 2.274650
C 2.158547 -3.856377 0.994406
C 1.478180 -2.936465 0.123184
C 1.204490 -2.970796 -1.259754
C 0.551886 -1.906733 -1.917094
C 0.224042 -1.839436 -3.314844
C -0.373208 -0.639805 -3.553493
C -0.445872 0.058517 -2.303490
H -2.129824 3.792004 -1.176945
C -1.049119 1.308279 -2.084640
H -1.840196 4.228942 1.253854
C -1.129838 1.931990 -0.826627
C -1.714919 3.213645 -0.546769
C -1.566164 3.446744 0.789920
C -0.921100 2.297829 1.373143
C -0.584173 2.134952 2.727472
C 0.057292 0.972382 3.202862
C 0.481793 0.586160 4.511403
C 1.118116 -0.639805 4.411024
H -1.404898 4.246498 -5.545925
C 1.073044 -1.014324 3.043381
C 1.661725 -4.148190 -2.028386
C 2.410643 -4.020230 -3.202972
C 2.874047 -5.134034 -3.879481
H -3.091249 5.207178 4.975659
H 0.894983 5.278376 5.630402
C 1.406373 -5.443207 -1.560641
C -1.728972 1.952569 -3.249766
C -1.169083 3.003953 -3.955444
C -1.813804 3.532571 -5.069957
H -3.961845 4.516659 -6.601035
C -3.034866 3.046867 -5.502885
C -3.614635 2.009137 -4.775174
C -2.961174 1.466865 -3.674588
H -2.107545 7.126588 6.118818
C -0.805764 3.254608 3.680231
H -0.518878 7.218268 6.289460
H -1.382619 6.314155 7.291082
C -3.694154 3.585238 -6.749028
C 2.897525 0.061443 -0.618757
C 4.136754 0.642728 -0.839135
C 4.479851 1.792618 -0.146490