235
Co1 Si1 H110 C116 N7
H -1.282068 -6.044004 -1.299531
H -2.077425 -7.905924 -0.185000
H -5.155670 -5.760217 1.265130
H -4.360201 -3.884454 0.159737
H -6.174361 -7.893811 1.397501
H -5.519870 -7.269134 2.715461
H -2.219622 -8.606739 2.238585
H -3.094359 -7.694814 3.219747
H 1.011136 -3.725256 -3.507030
H 1.620721 -5.152844 -5.232084
H -2.143403 -6.535440 -5.456047
H -2.740286 -5.218599 -3.653900
H 0.316935 -1.340753 -5.697156
H 1.388256 -2.463789 -7.418646
H 4.783936 -0.380376 -6.645578
H 3.713601 0.747850 -4.939363
H 2.117666 -2.266522 -9.574889
H -5.348801 -6.360669 4.953543
H 3.447939 -2.378998 -10.457748
H 3.023082 -0.970446 -9.825021
H -5.786779 -8.843805 2.626194
H 3.059862 -4.085181 -7.986583
H -3.298100 -9.655367 0.235069
H 4.498335 -3.848115 -7.328157
H -4.841275 -9.364659 -0.075449
H 5.883245 -3.275350 -1.112418
H -4.433892 -10.271393 1.179429
H 7.470376 -1.818346 -0.349088
H 6.956543 -0.366533 1.408314
H 4.377748 -4.164780 -8.891993
H -3.361093 -9.271216 3.141567
H 1.453855 2.687638 -5.968774
H 2.964713 4.077156 -7.037943
H 2.072099 9.695794 -2.935788
H 3.389434 3.282899 -2.479194
H 2.912522 8.884232 -4.029830
H 3.488973 10.251255 -3.430024
H 2.877538 9.813461 -0.574760
H 4.193865 7.133058 -5.805088
H 3.728347 6.477233 -7.186447
H 0.305166 5.548004 -2.553737
H 1.484483 7.437610 -3.204336
H 4.127952 6.828506 -0.252875
H 0.019815 9.732132 3.662551
H 2.973857 4.928518 0.391738
H -0.626337 10.116283 5.075435
H -1.517991 9.401624 3.955420
H 1.109593 8.860006 6.284761
H 0.225390 6.636431 0.550333
H 0.099832 8.252633 2.185619
H -0.375165 5.418223 5.023854
H -0.245012 3.786448 3.411369
H -1.272296 8.420482 6.654233
H -0.997773 6.870036 6.374298
H -2.134818 7.641798 5.554031
H 1.816715 8.425674 4.914355
H 1.359768 7.311290 5.968871
H 3.308625 -4.663138 2.300571
H 2.339251 -6.746550 2.583651
H 0.024814 -6.971503 2.614195
H -1.305077 -5.128618 2.093593
H -0.332332 -3.048667 1.782969
H 3.744057 -2.214610 4.470007
H 3.546385 -1.319988 6.616230
H 2.001972 0.313517 7.089071
H 0.642129 1.137192 5.379345
H 0.803654 0.256414 3.235146
H 3.760410 -3.393018 -0.112777
H 4.862637 -0.456514 2.423261
H 5.532786 7.787153 -1.900023
C -2.145965 1.189104 1.852978
C -2.917500 0.616339 2.959278
C -3.274980 -0.645129 2.602007
C -2.729518 -0.870082 1.257397
C -2.244307 -2.218070 -0.582588
C -2.155632 -3.514147 -1.255601
C -1.365491 -3.349758 -2.357997
C -0.968312 -1.942935 -2.372178
C 0.247006 -0.155423 -3.169058
C 1.214675 0.524627 -4.031317
C 1.403473 1.780904 -3.491567
C 0.594480 1.877807 -2.318005
C 0.277233 2.744742 -1.133853
C 0.637287 3.950837 -0.465553
C 0.009728 3.971602 0.769510
C -0.774204 2.729168 0.860537
C 5.154414 5.342085 -6.204810
C -3.179441 1.339650 4.230827
C 5.627990 4.587627 -7.464713
C -3.165519 0.678634 5.462577
C -4.040696 2.611500 9.151157
C -3.470909 1.353493 6.638434
C 6.385023 5.632794 -5.371195
C -3.786452 2.711864 6.617467
C 4.497100 6.658926 -6.608100
C -3.791597 3.360767 5.383824
C -3.495222 2.715325 4.200717
C -4.187861 3.469783 7.886953
C -3.302183 4.707025 8.037150
C -5.639271 3.898924 7.765448
C -4.030214 -1.678183 3.351158
C -5.991946 -4.645834 5.882564
C -3.589354 -2.975989 3.382329
C -5.894330 -4.086912 7.308556
C -4.228050 -3.936366 4.161105
C -7.456055 -4.853483 5.470866
C -5.327120 -3.630084 4.935857
C -5.315041 -5.992092 5.860067
C -5.816500 -2.330547 4.839967
C 5.069171 8.278589 -2.609592
C -5.190590 -1.363249 4.071599
C -2.720390 -4.742737 -0.670197
C -2.066126 -5.969597 -0.767602
C -2.541552 -7.080519 -0.097166
C -3.684237 -7.030337 0.704311
C -4.353196 -5.822512 0.760879
C -3.878819 -4.701207 0.092083
C -4.121628 -8.248545 1.517313
C -5.529154 -8.044357 2.119090
C -3.109162 -8.475228 2.627537
C -0.952225 -4.299752 -3.409865
C 0.364010 -4.303213 -3.889831
C 0.720299 -5.152844 -4.927080
C -0.187120 -5.995553 -5.527484
C -1.489471 -5.979979 -5.046535
C -1.853475 -5.173609 -3.990903
C 0.193006 -6.886713 -6.715291
C 1.891891 -0.151962 -5.141660
C 1.222231 -1.134835 -5.897884
C 1.857957 -1.804503 -6.922793
C 5.678643 -2.700855 -0.383864
C 3.206581 -1.515525 -7.240045
C 6.610171 -1.842572 0.054443
C 3.870848 -0.568991 -6.466022
C 6.309431 -0.989480 1.100124
C 3.233437 0.102408 -5.444870
C 3.845643 -2.263061 -8.419829
C 3.035068 -1.941205 -9.684171
C 3.954413 -3.713144 -8.131965
C 3.659378 8.669661 -2.127099
C -4.179687 -9.497900 0.634254
C 5.289375 -1.749130 -8.652774
C 2.285962 2.810497 -4.102107
C 2.972369 9.443154 -3.226835
C 2.165365 3.076980 -5.473798
C 3.773275 9.560822 -0.880815
C 3.076218 3.900655 -6.112305
C 4.142003 4.476881 -5.443330
C 4.208374 4.253658 -4.083514
C 3.301242 3.423062 -3.415321
C 1.497500 5.051377 -1.001632
C -0.623165 9.456997 4.349242
C 1.081333 5.805835 -2.069134
C 1.783599 6.944444 -2.449939
C 2.898122 7.382237 -1.769563
C 3.336790 6.584519 -0.719295
C 2.651142 5.445910 -0.337340
C -0.000714 5.016768 1.792541
C 0.101878 6.378600 1.457751
C 0.025977 7.338977 2.438741
C -0.157601 7.032695 3.796575
C -0.252814 5.672593 4.116728
C -0.177025 4.698373 3.153867
C -0.226040 8.098626 4.899395
C -1.248833 7.724858 5.965323
C 1.137351 8.181686 5.578347
C 0.371422 -0.369994 0.211763
C 1.228091 -0.923725 0.832228
C 1.594316 -3.605858 2.049290
C 2.361859 -4.742737 2.271370
C 1.787925 -5.985170 2.449534
C 0.421416 -6.127064 2.434980
C -0.361221 -5.035176 2.158280
C 0.223638 -3.796203 1.970446
C 2.276388 -1.086383 3.609461
C 3.100078 -1.538020 4.641991
C 2.980731 -0.999863 5.924177
C 2.077562 -0.030834 6.207338
C 1.267867 0.446759 5.198562
C 1.371058 -0.081016 3.919271
C 4.078315 -1.934283 1.270732
C 4.401479 -2.770071 0.213053
C 5.054865 -1.043123 1.701972
C -0.258264 -6.293183 -7.859846
C 1.724187 -7.282977 -6.625357
C -0.500256 -8.383517 -6.468473
N -2.106379 0.259183 0.815552
N -1.553255 -1.282438 -1.297713
N -0.115798 0.698880 -2.199610
N -0.599100 2.072824 -0.288320
N -1.526680 2.341557 1.900119
N -2.814940 -2.028072 0.604314
N -0.158119 -1.423813 -3.270161
Co -1.050763 0.361969 -0.680461
H -3.108399 2.325983 9.246974
Si 2.328902 -1.884102 1.923810
H 5.838082 -1.946396 -7.865110
H -2.945234 -0.245405 5.495345
H -4.618318 1.824164 9.080714
H -3.465822 0.884552 7.464572
H 5.271520 -0.780101 -8.803848
H -4.008860 4.284806 5.353921
H -4.302517 3.139275 9.936292
H -3.503856 3.189457 3.377403
H 5.671394 -2.195575 -9.437027
H 4.895061 4.679339 -3.580455
H 5.575024 9.088420 -2.830975
H -5.893015 4.421508 8.554978
H -6.210326 3.106397 7.700889
H 4.855468 4.383439 -8.033193
H -3.384349 5.265947 7.237043
H 6.067484 3.751840 -7.197797
H -2.369075 4.428429 8.147502
H 4.282325 10.368923 -1.101879
H -3.584918 5.217496 8.825004
H 4.233869 9.069386 -0.168268
H -5.750778 4.449194 6.960967
H 6.123040 6.117308 -4.561487
H -6.314301 -4.715050 7.934040
H 7.009613 6.179603 -5.891140
H -6.356261 -3.223438 7.352955
H 6.816326 4.788354 -5.121706
H -2.832958 -3.225168 2.863882
H -4.951586 -3.967514 7.548212
H -3.897780 -4.827527 4.161739
H -7.877473 -5.497195 6.076418
H -6.602874 -2.098672 5.319430
H -7.492437 -5.196104 4.553836
H -5.549852 -0.484201 4.030338
H -7.933730 -3.998661 5.518914
H -5.773369 -6.599465 6.477821
H 6.260596 5.144819 -7.962737
H -4.379438 -5.891728 6.137133
H 4.996601 7.711015 -3.406073
H 5.144989 7.214387 -7.088502