94
Ni1 P1 H41 Au1 C45 N4 Cl1
H -0.722138 -8.729763 -4.558727
H -1.710745 -7.968792 -5.560072
H -2.301621 -8.764300 -4.304192
Ni -0.478789 -1.016781 0.933254
P 0.754902 1.414413 -1.329447
H -0.723816 -1.022192 5.928518
H 2.315055 2.567383 3.082072
H 2.395083 3.098106 0.643116
H 0.934222 -0.359076 -3.849830
H 0.011948 -2.690343 -3.782070
H -0.934330 3.350228 5.565140
H -0.724513 2.505216 4.222842
H 0.183218 3.792305 4.509339
H 3.498079 -1.365263 5.627575
H 2.903835 -0.951966 4.200535
H 2.009222 -1.792374 5.226193
H 1.382628 -4.684296 -1.379459
H 1.483234 -6.275313 -1.244584
H 0.561040 -5.442965 -0.235071
H -3.084573 -6.032401 -4.513999
H 3.584085 4.213660 -4.097299
H 5.411509 1.020113 -2.500571
H 0.854996 4.399010 -2.384120
C -1.554957 -8.217460 -4.625727
H 0.425361 3.496436 -3.633098
H 6.715540 2.981830 -3.476801
H 5.905224 3.982260 -4.427384
H 6.122242 2.460317 -4.868307
H 2.828042 -0.720567 -1.430368
H 3.315071 0.170495 -0.192271
H 4.390487 -0.482259 -1.181843
Au -1.163985 2.508900 -1.608694
C -1.635104 -2.182645 3.146852
C -1.701619 -2.242510 4.563445
C -0.891960 -1.237475 5.018963
C -0.343228 -0.569754 3.880557
C 0.604174 0.435281 3.795035
C 1.007210 0.968307 2.561071
C 1.863909 2.098827 2.389133
C 1.919876 2.386638 1.056326
C 1.130077 1.410384 0.419300
C 0.417904 -0.280792 -1.792324
C 0.558408 -0.800002 -3.097397
C 0.040626 -2.073277 -3.059961
C -0.438295 -2.295467 -1.752872
C -1.125953 -3.450163 -1.325687
C 1.191356 0.959097 5.072049
C 0.734591 2.160994 5.622301
C 1.249114 2.561627 6.858777
C 2.650135 0.651715 6.960210
C 2.161740 0.191218 5.735520
C -0.273236 3.027880 4.918586
C 2.689318 -1.092418 5.145187
C -0.281836 -5.654793 -2.099929
H 0.233002 -7.496782 -2.789193
C 0.889452 -5.500527 -1.157095
C 2.280485 1.927292 -2.173720
H 1.432977 4.722509 -3.840265
C 2.323824 3.092350 -2.971015
C 3.541045 3.428513 -3.565106
C 4.681962 2.674448 -3.414573
C 4.627967 1.542777 -2.618806
C 3.450221 1.153657 -1.988059
C 1.157103 4.007588 -3.229196
C 5.969456 3.058964 -4.107838
C 3.500713 -0.077022 -1.123089
N -0.851085 -1.173005 2.752559
N 0.567122 0.545110 1.296624
N -0.179518 -1.163104 -0.961371
N -1.497732 -2.575104 0.883478
Cl -3.214447 3.484578 -1.770170
H -2.205737 -2.854971 5.087280
H 0.934771 3.372102 7.244707
H 3.315295 0.145168 7.412147
H -2.646615 -5.451023 0.133199
H -3.053211 -4.822445 2.524428
H 3.137040 3.212079 8.740886
H 3.438065 1.701648 9.175790
H 2.025490 2.367067 9.521914
H -2.856404 -2.884903 -3.690773
H -3.657261 -3.437500 -2.419529
H -4.016414 -3.970525 -3.884848
C -1.675992 -3.556078 -0.059968
C -2.380707 -4.642851 0.556997
C -2.600055 -4.305537 1.868497
C -2.008038 -3.018447 2.048246
C 2.189937 1.828285 7.535552
C 2.747529 2.321017 8.861611
C -1.228219 -4.637095 -2.232436
C -0.411245 -6.804885 -2.881473
C -1.446526 -6.969513 -3.782727
C -2.368032 -5.939150 -3.896701
C -2.282608 -4.777546 -3.142805
C -3.291333 -3.671202 -3.297882