49
Cu1 H8 C24 N4 F12
Cu 0.000307 -0.002435 0.019441
F 4.143919 2.112682 2.774047
N -1.986148 -0.005798 -0.052454
H -4.905760 -0.445656 1.099518
N 0.007242 -0.010166 -1.912418
H -4.923658 0.386448 -1.166752
N 1.931278 0.002938 -0.011950
H -1.144942 0.414403 -4.869833
F 2.674045 2.064634 4.238286
N -0.035266 -0.014534 1.995919
H 1.224307 -0.462691 -4.897533
H 4.953803 -0.480600 -1.099132
F -2.762474 -2.045654 4.162846
F -3.995199 -0.363974 3.936013
H 4.875500 0.598296 1.203469
F -4.243534 -2.045654 2.696744
H 1.067699 0.451531 4.955025
H -1.133756 -0.561845 4.888202
C -2.782609 -0.390182 1.048481
F -3.867676 0.317434 -4.056131
C -4.131672 -0.263510 0.579593
C -4.171942 0.238810 -0.606135
F 2.750112 -2.115105 -4.182472
C -2.818406 0.413530 -1.052246
F 3.962701 -0.311558 -3.984259
C -2.272516 0.684346 -2.349135
F 4.271442 -2.023814 -2.679566
C -1.012944 0.452842 -2.809978
C -0.596816 0.256282 -4.110668
F 3.951515 0.396058 3.961573
C 0.685129 -0.272246 -4.139832
C 1.049801 -0.381446 -2.744791
C -3.277042 1.326442 -3.336200
C 2.363067 -0.687206 -2.308113
C 2.783670 -0.377078 -0.965772
C 3.226646 1.234714 3.342237
C 4.188664 -0.219830 -0.599537
C 4.119309 0.317434 0.701835
C 2.718790 0.396058 1.046350
C 2.300424 0.732394 2.309548
C 0.998344 0.313066 2.761943
C 0.568792 0.203866 4.187357
C -0.625900 -0.289718 4.132403
C -1.064401 -0.416390 2.771686
F -4.192077 2.012218 -2.775931
C -2.303838 -0.730886 2.277978
C -3.303889 -1.316198 3.264118
F -2.637188 2.047162 -4.245979
C 3.365355 -1.241942 -3.290821