133
H16 W2 C74 N8 O3 F30
F -4.667000 -2.255301 -3.935652
F -5.166442 -4.296140 -5.626420
H 0.649880 -2.335880 5.492251
H 0.958271 -5.191815 0.803258
H 2.080381 -4.657199 -1.299698
C -0.012968 6.183886 0.823684
C 0.062849 7.545995 1.135984
C -1.085547 8.297557 1.105474
H -3.756095 -3.463998 -1.091563
N 2.896104 0.231827 -0.437417
H -4.421285 -2.487742 1.113939
N 2.433728 1.243723 1.956919
H -3.616802 2.345497 3.357442
H -2.500096 4.395634 2.543183
H -0.173365 4.217429 -4.343762
W 1.290489 -0.106144 0.904913
W -0.828767 0.756835 -0.705615
C 1.537413 -0.485644 5.094663
C 0.988458 -1.729982 4.843711
C 1.025147 -1.937630 3.428140
C 0.766907 -3.058000 2.653455
C 1.190553 -3.146327 1.352176
C 1.281402 -4.333330 0.554688
C 1.894984 -4.040454 -0.599415
C 2.226867 -2.645803 -0.610618
F 5.879513 -4.894290 -4.063529
F 5.323773 -3.378769 -1.898555
F 2.347178 4.209681 -1.734293
F 3.382045 6.588335 -2.449251
F 5.673936 7.496407 -1.354274
F 6.940022 5.980887 0.536252
F 5.983077 3.614630 1.233413
C 0.040431 -4.234155 3.277233
C 0.629542 -5.024457 4.206099
C -1.980286 -5.528081 3.514740
C -1.245320 -4.505337 2.933853
C 2.385497 -2.805413 -3.885410
F 1.127151 5.461767 0.856414
F 1.260813 8.062016 1.522908
C -0.843593 1.325853 -3.656751
C -1.528915 -0.773872 -3.341454
C -2.167077 -1.802814 -2.697470
C -2.627737 -1.716036 -1.368589
C -3.477203 -2.627207 -0.742779
C -3.841892 -2.094141 0.471621
C -3.174277 -0.832757 0.578800
C -3.313177 0.062919 1.627519
C -2.848097 1.364593 1.635398
C -3.106837 2.419879 2.559442
C -2.501004 3.551095 2.108307
C -1.873557 3.248921 0.882063
C -1.259905 4.158543 0.017869
C -0.864587 3.834674 -1.247479
C -0.523751 4.697808 -2.383273
C -0.396058 3.923002 -3.467687
C -0.653019 2.585687 -3.076118
C -2.481822 -3.037855 -3.497778
C -4.115416 -0.411262 2.826695
C -3.509312 -1.134931 3.808715
C -4.215075 -1.671097 4.901584
C -5.566261 -1.458800 4.957643
C -6.184929 -0.707238 3.982393
C -5.450500 -0.186569 2.925569
C -1.209229 5.619827 0.421386
C 3.813661 -4.289941 -5.012605
C -2.247353 7.752093 0.727636
C -2.317722 6.411679 0.394447
N 1.513484 -0.803314 2.847801
N 1.782259 -2.109637 0.602620
N -1.255628 0.408482 -2.679368
N -2.428245 -0.594117 -0.569526
N -2.061202 1.897659 0.594109
N -0.911031 2.548496 -1.715736
F -3.219694 -6.140178 -6.130311
O 0.677873 1.638874 0.114661
F -0.852505 -5.972820 -4.838596
O 0.403255 -0.556926 -0.978953
O -0.474274 -0.180370 1.273022
F 1.890855 -4.826107 4.629382
F -3.233748 -5.771370 3.119756
F -1.859260 -3.780119 1.980731
F 1.254698 -2.118935 -3.852115
F -0.387063 -4.021858 -3.082795
F -2.188161 -1.381319 3.767442
F -3.578680 -2.351377 5.839266
F -6.272124 -1.954676 5.967574
F -7.497581 -0.504239 4.029164
F -6.096900 0.504558 1.987553
H -0.549954 1.094960 -5.711505
F -3.363890 8.516052 0.683536
H -1.305075 -1.249602 -5.417075
F -3.483141 5.932849 -0.051151
F 4.089598 -5.095739 -6.091254
C -0.071433 -6.067346 4.830530
C -1.383694 -6.288940 4.456858
C 2.651002 -3.615860 -4.980705
H 1.679376 -0.085844 5.944061
H 4.283916 -0.124584 -3.316185
H 4.551198 2.134750 -2.396144
C -0.814348 0.695161 -4.890651
H 3.747451 4.019078 2.682570
C -1.229386 -0.594117 -4.732815
H 3.064775 2.739099 4.697000
H -0.413430 5.641522 -2.354498
F -0.995905 9.611628 1.468237
C 1.841891 0.070667 3.841888
C -3.685747 -3.177320 -4.168032
C -3.940941 -4.209361 -5.012793
C 2.878200 -1.929882 -1.592599
C -2.997951 -5.156174 -5.251325
C -1.799816 -5.050801 -4.625683
C 3.210402 -0.589468 -1.520639
C -1.565964 -4.023408 -3.745550
C 3.952415 0.183789 -2.480254
C 4.090658 1.414181 -1.981884
C 3.433892 1.466867 -0.724944
C 3.506167 2.525252 0.207382
C 3.086053 2.390436 1.557226
C 3.353842 3.154395 2.682879
C 2.958967 2.463268 3.793943
C 2.363935 1.262319 3.349508
C 3.262964 -2.701589 -2.812577
F 0.516894 -6.842152 5.760881
F -2.077017 -7.296188 5.029883
C 4.723820 -4.209361 -4.007978
C 4.443256 -3.417510 -2.904112
C 4.098784 3.836224 -0.211364
C 3.482135 4.638923 -1.166584
C 4.017427 5.827475 -1.545972
C 5.181598 6.283061 -0.988013
C 5.825808 5.534599 -0.025974
C 5.288226 4.329001 0.322598
F 1.736962 -3.749126 -5.952429