67
Sb1 H8 C37 N4 F17
Sb 0.466905 -0.121676 -0.812932
C 0.221163 -2.744071 -2.342645
F -0.843680 0.758058 -1.926811
F 0.819634 5.305903 -0.736486
C 0.905633 -3.325721 -3.450176
C 3.514096 0.773579 -3.407701
C 1.872575 -2.435530 -3.891609
C 1.806190 -1.276620 -3.074842
C 3.585342 1.948481 -2.675033
H 1.094730 4.220993 1.671605
F 4.693939 7.853405 -0.262273
H -0.729183 3.070235 2.880333
C 2.861142 4.122692 -0.508810
H -3.116362 -1.879278 2.224130
C 2.146329 5.316094 -0.561430
F -0.463810 0.796626 4.431742
H -2.727440 -3.744948 0.633086
F -2.015142 1.206916 6.585403
H 0.729277 -4.180794 -3.823261
C 4.117093 6.656398 -0.331959
H 2.474399 -2.576945 -4.613872
F -4.715471 1.347547 6.309743
F -5.837646 1.057506 3.858620
C -2.321418 0.724351 2.984616
F -4.306935 0.696914 1.687860
C -3.703266 0.803524 2.884990
F -0.129538 -5.284361 0.423595
C -4.506090 0.993854 3.991701
F -0.958681 -7.832647 0.143599
C -3.940811 1.144205 5.235691
F -2.420996 -8.567784 -2.025374
C -2.571368 1.077103 5.378555
F -3.142011 -6.687377 -3.873120
C -1.781118 0.867020 4.257180
F -2.297110 -4.163862 -3.624630
C -1.193040 -4.630123 -1.591992
C 2.479931 -0.026778 -2.859164
H 4.061940 0.544525 -4.148797
C -0.870503 -5.606856 -0.651809
H 4.192698 2.662609 -2.830851
C -1.278201 -6.930227 -0.786665
F 1.994281 7.666838 -0.490548
C -2.025871 -7.295993 -1.888043
C 2.591075 1.908973 -1.643453
C -2.364334 -6.355789 -2.831490
F 6.198164 5.572271 -0.154826
C 2.198130 2.793520 -0.600516
C -1.939034 -5.046371 -2.682905
F 5.026535 3.181705 -0.252608
C 1.185590 2.542673 0.360333
C 2.747483 6.552140 -0.455942
C 0.740844 3.366704 1.450299
F 1.715664 -1.036121 0.356828
C -0.269684 2.733630 2.121032
C 4.872307 5.502347 -0.286328
C -0.516114 1.470932 1.479403
C 4.246846 4.267242 -0.358220
N 1.965614 0.702872 -1.807457
C -1.458915 0.473034 1.794777
N 0.391149 1.398030 0.439523
C -1.661759 -0.775397 1.137616
N -0.977456 -1.183807 0.012594
C -2.507162 -1.867520 1.495516
N 0.773030 -1.501754 -2.198120
C -2.293925 -2.900066 0.611797
C -1.309717 -2.491657 -0.346704
C -0.753826 -3.216760 -1.429707