112
V1 H56 C50 N4 O1
H -5.037031 1.411125 0.977662
H -3.899217 2.174283 3.469466
H -5.346018 1.517585 3.278056
H -4.030496 0.655144 2.983544
V 0.562817 0.012680 0.637669
H 4.764512 -1.227631 0.319269
H -5.351490 -2.041028 0.807675
H 4.851265 0.718542 -0.385609
H -5.082018 -0.541028 1.294227
H -5.138221 -1.331698 -1.456579
H -6.321505 -0.542224 -0.723475
H 5.215573 2.027154 -2.184161
H -4.907887 0.170695 -0.954734
H -4.405132 -3.740788 -0.397911
H -3.078339 -4.629544 -0.294106
H -4.730248 -3.916626 1.950318
H -4.626424 -5.386721 1.326116
H -3.372132 -4.751554 2.090392
C -3.064874 2.006819 0.896389
C -2.204922 0.886006 0.699212
C -2.310521 -0.527870 0.716636
C -3.384166 -1.478827 0.615267
H -1.120507 -5.366386 1.919733
C -2.809832 -2.707296 0.391672
C -1.365147 -2.508731 0.400784
H -1.093672 -6.991984 -2.451576
H -0.383906 -4.817343 -2.030814
H -1.762108 -9.483611 -0.112493
H -3.028467 -8.875955 -0.879949
H -1.678598 -9.185764 -1.682086
H 2.809350 -5.674999 1.374605
H 1.265157 -5.753547 0.973784
H 3.402167 -6.103228 -0.872924
H 2.522922 -7.295812 -0.268554
H 1.851571 -6.222846 -1.247386
H 5.222585 -3.166626 1.127123
H 4.714120 -4.666626 0.906793
H 5.524824 -2.928587 -1.204954
H 6.393393 -4.152272 -0.649485
H 5.019446 -4.430980 -1.423036
C 3.041226 1.419498 -0.610059
C -4.448976 2.008015 1.505161
C -4.428853 1.548685 2.932381
C -4.865291 -1.204903 0.591988
C -5.351524 -0.679784 -0.756372
C -3.629192 -3.956099 0.178089
C -4.136302 -4.557774 1.507135
C -0.315061 -3.426195 0.221439
C 1.054364 -3.075717 0.213568
C 2.159905 -4.008731 0.366965
C 3.310906 -3.259927 0.369500
H 1.513058 4.979307 -2.380624
C 2.920628 -1.892702 0.211936
C 3.905727 -0.901076 0.080019
C 3.955437 0.412321 -0.305330
H 0.833185 5.305862 1.294312
H 0.526035 7.600120 1.192945
H -1.229955 7.226914 -2.406098
N -0.968030 1.322609 0.324141
H -0.968742 4.924283 -2.305674
N -1.113808 -1.170214 0.601961
H -0.930181 9.470933 0.204382
H 0.261593 9.580981 -0.858568
H -1.242879 9.369259 -1.361836
H -3.439272 4.647967 1.399890
H -2.157713 5.176675 0.599901
H -4.550078 4.223326 -0.640911
H -4.103079 5.758015 -0.575813
H -3.262252 4.716149 -1.453749
H -4.823054 2.923087 1.461897
H 4.837280 3.547489 -2.496081
C -0.693196 -4.854425 -0.015922
C -1.122401 -5.688157 1.024813
C -1.551468 -6.977630 0.759468
H 5.957753 2.636006 -0.049675
C -1.554993 -7.481219 -0.536139
H 6.738645 3.478111 -1.163071
C -1.109013 -6.659448 -1.561364
H 5.548751 4.156340 -0.333959
H 2.896462 4.527154 -3.030957
C -0.683410 -5.361602 -1.313262
C -2.049836 -8.879544 -0.828400
C 2.162552 -5.491984 0.647861
H 4.037865 5.682656 -1.248158
C 2.515423 -6.354425 -0.539061
H 3.200725 6.657536 -2.201756
C 4.731121 -3.762319 0.506142
H 2.619224 6.244857 -0.769302
C 5.484331 -3.824520 -0.808692
N 1.690405 1.490073 -0.336333
N 1.558214 -1.769497 0.144958
O 0.997560 0.201077 2.152590
C 0.084020 3.383613 -0.357288
C -1.015295 2.679068 0.186661
C -2.339034 3.133613 0.559941
C -0.062783 4.870455 -0.480203
C 0.393837 5.688637 0.544728
C 0.214973 7.057058 0.479233
C -0.405750 7.652752 -0.599381
C -0.824527 6.835766 -1.641389
C -0.665273 5.464953 -1.586123
C 3.484914 2.625240 -1.254698
C -0.596491 9.150359 -0.658577
C -2.904807 4.527154 0.575260
C 2.420116 3.462561 -1.352253
C -3.783406 4.833374 -0.630851
C 1.300643 2.785527 -0.696200
H -1.846590 -7.527869 1.475457
C 4.881566 2.865671 -1.779754
C 5.867695 3.323805 -0.741604
C 2.447014 4.726915 -2.171995
C 3.137748 5.936245 -1.541233