111
Co1 H31 C63 N6 F10
C -4.747796 0.526612 -0.263830
Co -0.847232 1.599845 -1.546874
C -5.004207 1.352176 0.736194
C -4.049596 2.270500 1.114396
H -0.102948 -3.159052 -0.281431
C -2.847237 2.292144 0.458121
H -1.215217 -3.285824 -2.503646
H -3.119241 0.709040 -5.894156
H -3.160821 3.198100 -5.525815
H -2.464353 5.767552 -3.411418
H -1.263727 6.568380 -1.332388
H 1.477098 3.470196 2.471569
H 1.700591 1.061528 2.672613
H -0.168783 -0.537036 3.264052
H 2.454231 -4.231976 2.216993
H 2.015907 -2.648872 0.595586
H 1.513480 3.349608 -1.605145
H 3.537047 3.575324 -2.763473
H 2.563379 0.455496 -5.021064
H 0.541544 0.242148 -3.784530
H -3.389512 0.041168 -1.650340
H -5.388824 -0.122708 -0.528972
H -5.837543 1.311980 1.190013
H -4.224580 2.879624 1.821746
H -2.185420 2.910544 0.743837
F -1.184032 7.715512 3.488961
F 1.092481 9.007968 3.136523
F 2.871765 8.006160 1.446009
C 4.340930 -7.871260 7.038521
C 5.569277 -8.536040 7.141249
C 6.619175 -8.214472 6.380106
C 6.558538 -7.187928 5.446483
C 5.370039 -6.489136 5.269890
C 4.252572 -6.795244 6.052161
C 0.830873 7.826824 2.397401
C 4.122634 -4.664856 4.224077
C 5.286878 -5.363648 4.377817
C 0.406409 -0.490656 0.663183
C -0.170516 -1.034848 -0.492654
C -0.361091 -2.420064 -0.818131
N 0.058175 1.877816 0.081038
C -0.981328 -2.491180 -2.038110
N -0.705860 -0.274216 -1.549830
C -1.211752 -1.164712 -2.473762
N -1.762689 1.556248 -3.190366
C -1.875301 -0.762752 -3.672765
N -1.112999 3.426908 -1.740521
C -2.110922 0.557532 -4.009462
C 1.724846 -4.358748 4.788921
N 0.863791 1.763412 -2.530476
C -2.767542 1.169748 -5.141795
C 0.654157 -4.698868 5.628411
N -2.566571 1.478948 -0.571961
C -2.796995 2.539504 -4.943768
C 0.742515 -5.672848 6.582564
C -2.164630 2.752852 -3.687056
C 1.922352 -6.393284 6.740808
C -1.826791 3.831960 -2.847190
C 2.043627 -7.444564 7.699356
C -1.993112 5.229544 -2.786335
C 3.178419 -8.146448 7.827975
C -1.336492 5.668608 -1.633297
C -0.795950 4.506016 -0.992544
C -0.052705 4.339048 0.217463
C 0.335376 3.099156 0.675131
H 5.659367 -9.237924 7.775622
C 1.116736 2.823968 1.875697
H 7.428256 -8.703008 6.478559
C 1.229349 1.512960 1.980814
H 7.324305 -6.962212 4.933275
C 0.551939 0.872916 0.922228
C 3.031156 -6.084084 5.903380
C 0.822210 -1.433716 1.734912
C 2.941065 -5.026620 4.949237
C 0.373491 -1.285300 3.042107
F -1.729771 5.514008 2.121282
C 0.699202 -2.206716 4.031581
C 1.470168 -3.329112 3.771395
C 1.932747 -3.471344 2.443409
C 1.648616 -2.540652 1.465176
F 2.326026 5.801564 -0.038995
F -4.150082 -2.416972 -3.166205
F -4.901989 -4.432956 -4.730435
F -3.583552 -4.936952 -7.032294
F -1.535730 -3.307468 -7.792788
F -0.679872 -1.359508 -6.130288
H 4.096647 -3.928960 3.626110
H 6.054378 -5.100828 3.883002
C 0.352701 5.560388 0.985590
H 4.022149 2.153004 -4.484986
C -0.610572 6.110764 1.953235
C -0.303918 7.208424 2.597754
C 1.776821 7.393944 1.521885
C 1.416460 6.252996 0.829392
C -2.317090 -1.869688 -4.587897
C 1.156584 0.928572 -3.558334
C -3.443219 -2.655056 -4.279475
C -3.820906 -3.700152 -5.068481
C -3.179878 -3.941328 -6.213545
C -2.107457 -3.128132 -6.556138
H 0.382154 -2.061392 4.916960
C 2.365873 1.055344 -4.311273
C -1.783479 -2.126324 -5.771397
C 1.719649 2.725024 -2.289685
C 2.930670 2.882716 -2.996625
H -0.167051 -4.231976 5.530034
C 3.214801 2.047876 -3.994522
H -0.004195 -5.858368 7.139363
H 1.303847 -7.651728 8.258412
H 3.211336 -8.851424 8.462707
C -3.541972 0.622464 -0.913225