119
Tb1 H57 C52 N4 O5
C 0.489188 -3.933052 1.266379
C 1.730737 -4.513999 1.285027
C 1.928326 -5.815382 1.748523
C 0.837991 -6.537350 2.193746
C -0.424852 -5.983994 2.164298
C -0.588394 -4.687210 1.713349
C 2.204667 -8.390556 2.829676
C 4.109922 -0.795324 -3.451807
H 4.760979 -1.229118 -5.969251
H 4.664431 -0.632843 -8.486027
O 0.918367 -7.834134 2.650951
C 1.168516 -0.271092 -5.845450
C 1.808195 -0.517880 -7.053083
C 3.135317 -0.881163 -7.124890
C -0.282448 0.090658 -5.822093
Tb -0.948386 0.609480 -0.329087
H 1.896870 4.378017 -2.742659
H 2.141051 2.526344 -4.397760
H 1.611279 -2.883055 -3.495809
H 0.190059 -2.610209 3.674256
H 0.187108 -0.409048 4.792109
H 1.200115 4.594148 2.711632
H 1.541735 5.254803 0.305436
H 3.857584 -1.587803 -2.934006
H -0.942814 4.074515 6.793117
H 2.569453 2.141601 6.928908
C 3.845733 -0.977732 -5.937938
H -2.024252 2.958606 3.709752
H -2.352670 3.973347 4.904212
H -1.398206 4.431667 3.703956
H 0.749370 2.716417 9.119341
C 3.826671 -1.140214 -8.449410
H 1.887673 3.775611 8.739985
H 0.354690 4.230865 8.785086
H 2.592865 0.325183 4.409965
H 2.930183 1.634230 3.551675
H -3.236679 -2.486049 -2.402387
H -1.686634 -2.062984 -2.454020
H -3.914370 -0.122407 -2.868372
H -3.005884 2.333206 -2.444702
H -1.630138 2.330141 -3.260728
H -2.969749 1.789047 -3.948535
H -2.640285 3.954953 0.396981
H -1.706087 4.141960 -0.888701
H -3.298470 4.218602 -1.037730
H -4.090131 1.105400 -1.332329
H -4.701071 2.520213 -0.880274
H -4.408353 2.104813 1.271229
H -4.959070 0.729854 0.691516
H -3.691023 -0.626712 2.701828
H -2.284222 0.060002 3.032322
H -3.638388 0.899999 3.179227
H -3.169216 -2.663858 0.831917
H -3.252824 -1.134082 1.296110
H -4.379756 -1.741088 0.336780
H 1.132456 -4.133854 -1.423999
C 0.873792 2.964737 -1.525718
H 2.477432 -4.017358 0.972470
C 1.580595 3.487436 -2.643491
H 2.798085 -6.197059 1.757222
C 1.720570 2.469629 -3.547773
C 1.111020 1.295472 -2.971340
H -1.176365 -6.489832 2.453758
C 1.254629 -0.061093 -3.335453
H -1.457349 -4.303999 1.709028
C 0.978009 -1.132549 -2.460543
H 2.724002 -7.823404 3.437784
C 1.283876 -2.512107 -2.685758
H 2.121340 -9.288801 3.214157
H 2.659933 -8.445738 1.963977
C 0.565777 -2.245393 -0.549907
C 0.324759 -2.507509 0.804325
C 0.133757 -1.547950 1.809653
C 0.168945 -1.765613 3.239658
C 0.166161 -0.557734 3.853116
C 0.125300 0.460073 2.836220
C 0.287124 1.847295 3.016701
C 0.398653 2.762402 1.934521
C 0.982180 4.076048 1.945160
C 1.166169 4.442397 0.625010
C 0.680672 3.357145 -0.163317
C 1.904668 -0.370727 -4.649182
H 5.055606 -0.858171 -3.705494
H 3.970286 0.007885 -2.909722
C 3.258854 -0.717149 -4.701998
C 0.498633 2.353133 4.412295
H 1.313170 -0.432041 -7.858705
C -0.465762 3.171671 5.030837
C -0.284183 3.533421 6.373152
H -0.570771 0.340512 -6.725001
C 0.813369 3.136415 7.106768
H -0.805609 -0.677295 -5.514269
C 1.788303 2.394520 6.450172
H -0.420781 0.846350 -5.215127
C 1.665646 2.008244 5.121113
H 3.241922 -0.858171 -9.183925
C -1.664642 3.677509 4.270174
H 3.620308 1.411968 4.978811
C 0.964524 3.496633 8.565010
C 2.801271 1.281677 4.457422
H 4.021559 -2.096707 -8.535043
C -2.591996 -1.757949 -2.207036
C -2.987231 -0.422844 -3.049201
C -2.471669 1.850361 -3.108222
C -2.558216 3.783275 -0.565112
C -4.008310 1.844230 -0.678638
C -4.170832 1.338392 0.692590
C -3.178895 0.207154 2.659912
C -3.425926 -1.757949 0.560128
N 0.539220 1.658756 -1.777970
N 0.496359 -1.003791 -1.152424
N 0.045093 -0.182187 1.598344
N 0.173521 2.391454 0.651690
O -3.069515 0.607226 1.369731
C 1.028520 -3.197287 -1.547992
O -2.600542 2.484958 -0.784283
O -2.649880 -1.364009 -0.598843
O -2.144671 0.332848 -2.551782
H -2.858487 -0.542405 -4.023413