86
Ni1 H36 C43 Br1 N5
Ni 0.135467 -0.320853 -0.180629
H -2.627362 2.583206 -3.150387
H -4.630122 -0.280354 1.191953
H -3.532278 -1.738725 2.820133
H 1.526680 -3.393453 3.467493
H 3.581500 -2.986419 2.164095
H -6.410863 3.661131 -0.276790
H -7.150414 0.396673 -2.458182
H -3.236764 3.789992 -0.263583
H -4.368293 3.972032 0.855227
H -3.342414 2.746838 0.944256
H -8.744354 2.969786 -0.680082
H -8.526929 3.147736 -2.256227
H -9.003120 1.736410 -1.667504
H -4.204459 -1.256010 -1.845779
H -5.573317 -1.317372 -2.671957
H -4.305515 -0.554438 -3.281757
C 5.331618 -2.671427 -0.334013
H 3.984195 -3.076416 -1.785090
C 6.715788 -2.945511 -0.083869
H 3.935198 -4.113434 -0.567657
C 7.472182 -2.110987 0.720160
C 6.901059 -1.028971 1.247538
C 5.572010 -0.689434 1.023073
C 8.916068 -2.526204 0.967071
H 4.743652 1.186197 0.923449
H 4.189371 0.325084 2.151976
H -0.503640 -3.495723 3.823706
H -2.040927 -3.164368 3.521284
H 0.782536 -1.374643 4.896966
H 0.656981 0.020319 6.825797
H -3.270450 -0.724206 7.135562
H -3.160206 -2.061898 5.239927
H 3.007314 1.513461 -3.599576
H 4.618096 0.169634 -2.243429
C 0.208350 1.325285 -2.388197
C -0.586323 2.186398 -3.184665
C -1.886279 2.127081 -2.768319
C -1.913840 1.239378 -1.644553
C -2.941250 0.809844 -0.812338
C -2.726887 -0.053315 0.256010
C -3.706831 -0.507394 1.200775
C -3.114271 -1.294873 2.090907
C -1.733163 -1.348053 1.745283
C 0.566642 -2.088488 2.061463
C 1.609363 -2.839150 2.699492
C 2.731705 -2.599838 1.990515
C 2.446909 -1.685544 0.946446
C 3.345701 -1.174194 0.018639
C 2.970566 -0.327399 -1.016406
C 3.688681 0.265767 -2.074445
C 2.802138 1.010293 -2.820017
C 1.537399 0.885524 -2.214019
C -4.349919 1.276195 -1.056560
C -4.781707 2.485026 -0.467529
C -6.110755 2.845017 -0.657180
C -6.997298 2.100491 -1.349886
C -6.544074 0.920295 -1.946193
C -5.239524 0.496898 -1.809933
C -3.853822 3.319550 0.335017
C -8.445777 2.525934 -1.502124
C -4.792425 -0.765114 -2.457948
C 4.804898 -1.530094 0.224617
C 4.524695 -3.591857 -1.150085
C 4.987106 0.558260 1.634611
C -1.146728 -2.761425 3.656489
C -1.186538 -1.857358 4.850910
C -0.050416 -1.245783 5.336857
C -0.122381 -0.415351 6.498999
C -1.301376 -0.253764 7.126174
C -2.445154 -0.848976 6.681969
C -2.367064 -1.642591 5.552193
Br 0.128270 3.168804 -4.609163
N -0.630727 0.768936 -1.433967
N -1.494302 -0.615800 0.645385
N 1.074988 -1.401234 0.995706
N 1.672141 0.081681 -1.139641
N -0.742501 -2.025081 2.413142
H 7.120015 -3.712536 -0.474922
H 7.426247 -0.462395 1.800983
H 5.117255 -4.197295 -1.643479
H 9.000282 -2.892330 1.872100
H 9.176365 -3.209367 0.313764
H 9.500972 -1.744861 0.875161
H 5.650099 0.973476 2.224533
H -1.339655 0.292358 7.903507