113
Ni1 H47 C60 N5
C -1.306927 2.045959 -0.178178
C -0.682445 0.714296 0.035956
C -0.673377 -0.373076 0.969782
C 0.112931 -1.430121 0.393074
C 0.745786 -0.883725 -0.823865
C 1.791593 -1.243773 -1.672552
C -1.605714 5.877570 -3.006416
C -2.842305 5.781686 -3.654266
C -3.540706 6.942746 -3.958641
C -3.047383 8.196978 -3.639240
C -1.819502 8.273634 -3.007594
C -1.075096 7.134771 -2.685792
C -3.408940 4.440732 -4.061987
C -3.840403 9.434693 -3.991341
C 0.269968 7.276984 -2.030540
C -1.113408 -0.765386 2.232020
C -1.697569 -0.100523 3.359435
C -1.975736 1.277985 3.312506
C -2.509882 1.927104 4.396232
C -2.772950 1.220429 5.569428
C -2.472733 -0.121429 5.646548
C -1.926246 -0.813393 4.555563
C -1.541574 -2.227647 4.631514
C -0.914152 -2.830696 3.526254
C 0.010318 -2.526526 1.250355
H -3.299881 10.214075 -3.842671
C 3.498882 -2.510782 -0.341609
C 2.641044 -2.452839 -1.454421
C 3.534153 -1.422378 0.697304
N 1.692130 0.779724 -3.065642
N 0.784568 2.979891 -3.338787
N -0.718291 2.649395 -1.238425
N 0.145733 0.386381 -0.961933
N -0.702335 -2.078079 2.373564
H 3.897508 0.727821 -5.271663
H 2.382330 4.077367 -5.801481
H 0.670399 5.643926 -5.005987
H -4.099943 9.396611 -4.914696
H -0.421860 -5.777673 4.763547
C 1.796649 3.937052 -5.092753
H 0.469384 -6.612133 3.055051
H 1.345755 -7.508731 1.133696
H 1.485531 -6.226494 -0.799197
H 0.848527 -4.012481 -0.747679
H -0.311997 -6.763560 6.724370
H -1.410360 -7.075911 7.798451
H -1.805326 -6.952592 6.286364
H 3.576640 -5.218462 -2.874595
H -3.529394 -5.187955 7.039679
H 4.939270 -3.632313 0.517032
H -3.007894 -5.479400 8.489067
H -3.027281 -4.009758 7.943766
H -0.563801 -3.621422 8.254746
H -0.620133 -4.980172 9.034636
H 5.972118 -5.773917 -1.794334
H 0.428598 -4.777951 7.887084
H 5.919460 -5.638970 -0.233376
H 4.905674 -6.578077 -0.973583
H 1.750690 -4.375988 -4.000162
H 0.799809 -3.396011 -3.230055
H 3.891663 -1.290089 -3.798522
C -1.718443 -3.005816 5.777285
Ni 0.470483 1.688233 -2.153358
C -1.303722 -4.337350 5.848643
C -0.693027 -4.888650 4.730190
C -0.468653 -4.163907 3.556774
C 0.167253 -4.731468 2.364407
H -2.976208 4.693979 -0.586242
H -2.956201 2.716810 0.941398
C 0.557399 -6.076422 2.299989
C 1.067943 -6.621270 1.143979
H -4.362578 6.876388 -4.388781
H -1.477618 9.110533 -2.789828
C 1.170165 -5.849940 -0.009609
H -3.564420 3.907473 -3.279018
C 0.800086 -4.522536 0.028550
C 0.353817 -3.930199 1.211283
H -4.237179 4.572014 -4.529373
C 3.559178 -4.536861 -2.242163
H -2.785090 3.991059 -4.636684
C -1.471736 -5.115519 7.161792
C 4.423738 -4.601773 -1.160757
C -1.227037 -6.617140 6.975278
C 4.373300 -3.591185 -0.219668
C -2.891769 -4.930849 7.709780
H -4.624998 9.479615 -3.439907
C -0.462077 -4.573124 8.179735
H 0.333501 8.139668 -1.614125
C 5.394193 -5.753153 -1.028367
H 0.376183 6.592350 -1.365992
C 2.665873 -3.483171 -2.410801
H 0.959388 7.189798 -2.692836
H -1.794771 1.755817 2.535416
H -2.696207 2.837046 4.348965
H -3.151101 1.655119 6.299540
H -2.635915 -0.579103 6.439487
H -2.127360 -2.623455 6.519997
C 1.691672 -3.524209 -3.561133
H 1.904489 -2.826967 -4.185821
H 4.310262 -1.533722 1.251284
H 3.570718 -0.566857 0.263426
H 2.743830 -1.472385 1.240096
C 2.266493 -0.407274 -2.788676
C 3.314432 -0.563682 -3.735885
C 3.323830 0.568599 -4.557192
C 2.306990 1.417487 -4.101967
C 1.722859 2.752118 -4.263022
C 0.851744 4.806459 -4.644563
C 0.174293 4.210379 -3.509814
C -0.863760 4.615981 -2.684416
C -1.329983 3.822972 -1.552431
C -2.381359 3.980025 -0.622257
C -2.372462 2.875102 0.234997